pglib-opf-21.07/api/pglib_opf_case13659_pegase__api.m
%%%%%%%%%%%%%%%%%%%%%%%%%%%%%%%%%%%%%%%%%%%%%%%%%%%%%%%%%%%%%%%%%%%%%%%%%%%
%%%%                                                                  %%%%%
%%%%    IEEE PES Power Grid Library - Optimal Power Flow - v21.07     %%%%%
%%%%          (https://github.com/power-grid-lib/pglib-opf)           %%%%%
%%%%             Benchmark Group - Active Power Increase              %%%%%
%%%%                         29 - July - 2021                         %%%%%
%%%%                                                                  %%%%%
%%%%%%%%%%%%%%%%%%%%%%%%%%%%%%%%%%%%%%%%%%%%%%%%%%%%%%%%%%%%%%%%%%%%%%%%%%%
function mpc = pglib_opf_case13659_pegase__api
mpc.version = '2';
mpc.baseMVA = 100.0;

%% bus data
%	bus_i	type	Pd	Qd	Gs	Bs	area	Vm	Va	baseKV	zone	Vmax	Vmin
mpc.bus = [
	1	 3	 0.0	 0.0	 0.0	 0.0	 0	    1.00000	    0.00000	 20.0	 6	    1.10000	    0.90000;
	2	 1	 79.34	 45.00	 0.0	 6.61	 0	    1.00000	    0.00000	 150.0	 9	    1.10000	    0.90000;
	3	 1	 413.05	 98.50	 0.0	 16.61	 0	    1.00000	    0.00000	 220.0	 6	    1.10000	    0.90000;
	4	 1	 146.27	 19.10	 0.0	 0.08	 0	    1.00000	    0.00000	 154.0	 1	    1.10000	    0.90000;
	5	 1	 164.83	 48.80	 0.0	 4.69	 0	    1.00000	    0.00000	 220.0	 5	    1.10000	    0.90000;
	6	 1	 187.11	 23.40	 0.0	 2.1	 0	    1.00000	    0.00000	 220.0	 5	    1.10000	    0.90000;
	7	 1	 50.16	 14.00	 0.0	 13.34	 0	    1.00000	    0.00000	 220.0	 6	    1.10000	    0.90000;
	8	 1	 374.85	 53.10	 0.70508	 36.832433	 0	    1.00000	    0.00000	 380.0	 6	    1.10000	    0.90000;
	9	 1	 -0.0	 -0.0	 0.0	 75.076713	 0	    1.00000	    0.00000	 380.0	 5	    1.10000	    0.90000;
	10	 1	 33.87	 10.30	 0.0	 0.65	 0	    1.00000	    0.00000	 110.0	 21	    1.10000	    0.90000;
	11	 1	 0.0	 -0.0	 0.0	 3.41	 0	    1.00000	    0.00000	 154.0	 1	    1.10000	    0.90000;
	12	 2	 0.0	 0.0	 0.0	 0.0	 0	    1.00000	    0.00000	 20.0	 3	    1.10000	    0.90000;
	13	 1	 15.61	 2.00	 0.0	 1.91	 0	    1.00000	    0.00000	 154.0	 1	    1.10000	    0.90000;
	14	 1	 146.27	 24.70	 0.0	 12.44	 0	    1.00000	    0.00000	 220.0	 5	    1.10000	    0.90000;
	15	 1	 0.0	 0.0	 0.0	 0.0	 0	    1.00000	    0.00000	 150.0	 9	    1.10000	    0.90000;
	16	 1	 -6.11	 2.00	 0.0	 0.47	 0	    1.00000	    0.00000	 150.0	 9	    1.10000	    0.90000;
	17	 1	 -22.74	 -8.32	 0.0	 6.5	 0	    1.00000	    0.00000	 220.0	 6	    1.10000	    0.90000;
	18	 2	 0.0	 0.0	 0.0	 0.0	 0	    1.00000	    0.00000	 20.0	 14	    1.10000	    0.90000;
	19	 1	 65.13	 26.70	 0.0	 12.84	 0	    1.00000	    0.00000	 220.0	 4	    1.10000	    0.90000;
	20	 1	 33.40	 4.30	 0.0	 5.15	 0	    1.00000	    0.00000	 154.0	 1	    1.10000	    0.90000;
	21	 1	 0.0	 -0.0	 0.234457	 -0.195381	 0	    1.00000	    0.00000	 380.0	 6	    1.10000	    0.90000;
	22	 1	 73.87	 12.10	 0.0	 2.18	 0	    1.00000	    0.00000	 220.0	 3	    1.10000	    0.90000;
	23	 1	 0.0	 0.0	 0.295874	 20.603438	 0	    1.00000	    0.00000	 380.0	 3	    1.10000	    0.90000;
	24	 1	 27.65	 7.50	 0.0	 2.39	 0	    1.00000	    0.00000	 110.0	 12	    1.10000	    0.90000;
	25	 1	 1.53	 0.20	 0.0	 4.93	 0	    1.00000	    0.00000	 154.0	 1	    1.10000	    0.90000;
	26	 1	 175.96	 39.30	 0.0	 30.71	 0	    1.00000	    0.00000	 220.0	 5	    1.10000	    0.90000;
	27	 1	 0.0	 -0.0	 0.0	 0.85	 0	    1.00000	    0.00000	 220.0	 5	    1.10000	    0.90000;
	28	 1	 21.42	 7.10	 0.0	 1.15	 0	    1.00000	    0.00000	 110.0	 19	    1.10000	    0.90000;
	29	 2	 0.0	 0.0	 0.0	 0.0	 0	    1.00000	    0.00000	 20.0	 18	    1.10000	    0.90000;
	30	 1	 34.87	 8.80	 0.0	 0.73	 0	    1.00000	    0.00000	 110.0	 22	    1.10000	    0.90000;
	31	 1	 0.0	 -0.0	 0.235277	 0.313936	 0	    1.00000	    0.00000	 220.0	 3	    1.10000	    0.90000;
	32	 1	 182.62	 54.80	 0.0	 110.54	 0	    1.00000	    0.00000	 380.0	 5	    1.10000	    0.90000;
	33	 2	 0.0	 0.0	 0.0	 0.0	 0	    1.00000	    0.00000	 20.0	 4	    1.10000	    0.90000;
	34	 1	 -0.0	 0.0	 0.0	 14.82	 0	    1.00000	    0.00000	 380.0	 13	    1.10000	    0.90000;
	35	 1	 0.0	 0.0	 0.0	 0.0	 0	    1.00000	    0.00000	 150.0	 9	    1.10000	    0.90000;
	36	 1	 166.90	 49.40	 0.0	 27.65	 0	    1.00000	    0.00000	 380.0	 5	    1.10000	    0.90000;
	37	 1	 -0.0	 0.0	 0.0	 0.56	 0	    1.00000	    0.00000	 150.0	 9	    1.10000	    0.90000;
	38	 1	 76.06	 43.20	 0.0	 6.3	 0	    1.00000	    0.00000	 150.0	 9	    1.10000	    0.90000;
	39	 2	 0.0	 0.0	 0.0	 0.0	 0	    1.00000	    0.00000	 20.0	 9	    1.10000	    0.90000;
	40	 1	 0.0	 -0.0	 0.0	 37.54	 0	    1.00000	    0.00000	 220.0	 4	    1.10000	    0.90000;
	41	 1	 0.0	 -0.0	 0.0	 0.25	 0	    1.00000	    0.00000	 220.0	 4	    1.10000	    0.90000;
	42	 2	 0.0	 0.0	 0.0	 0.0	 0	    1.00000	    0.00000	 11.0	 1	    1.10000	    0.90000;
	43	 1	 14.75	 4.90	 0.0	 1.8	 0	    1.00000	    0.00000	 110.0	 19	    1.10000	    0.90000;
	44	 1	 11.47	 3.50	 0.0	 0.31	 0	    1.00000	    0.00000	 110.0	 12	    1.10000	    0.90000;
	45	 2	 0.0	 0.0	 0.0	 0.0	 0	    1.00000	    0.00000	 20.0	 4	    1.10000	    0.90000;
	46	 1	 -0.0	 0.0	 0.12	 15.34	 0	    1.00000	    0.00000	 220.0	 19	    1.10000	    0.90000;
	47	 1	 10.05	 2.60	 0.0	 2.0	 0	    1.00000	    0.00000	 110.0	 18	    1.10000	    0.90000;
	48	 1	 46.67	 12.80	 0.0	 13.3	 0	    1.00000	    0.00000	 220.0	 8	    1.10000	    0.90000;
	49	 1	 -0.0	 0.0	 0.019959	 0.320041	 0	    1.00000	    0.00000	 150.0	 10	    1.10000	    0.90000;
	50	 1	 17.49	 4.54	 0.0	 0.1	 0	    1.00000	    0.00000	 110.0	 23	    1.10000	    0.90000;
	51	 2	 0.0	 0.0	 0.0	 0.0	 0	    1.00000	    0.00000	 14.4	 1	    1.10000	    0.90000;
	52	 1	 30.46	 4.00	 0.0	 4.23	 0	    1.00000	    0.00000	 154.0	 1	    1.10000	    0.90000;
	53	 1	 22.73	 7.90	 0.0	 26.89	 0	    1.00000	    0.00000	 380.0	 4	    1.10000	    0.90000;
	54	 2	 0.0	 0.0	 0.0	 0.0	 0	    1.00000	    0.00000	 20.0	 14	    1.10000	    0.90000;
	55	 1	 0.0	 0.0	 0.0	 7.27	 0	    1.00000	    0.00000	 220.0	 5	    1.10000	    0.90000;
	56	 1	 11.04	 3.70	 0.0	 0.81	 0	    1.00000	    0.00000	 110.0	 19	    1.10000	    0.90000;
	57	 1	 10.93	 2.70	 0.0	 1.14	 0	    1.00000	    0.00000	 110.0	 18	    1.10000	    0.90000;
	58	 1	 6.31	 -0.00	 0.0	 0.67	 0	    1.00000	    0.00000	 110.0	 18	    1.10000	    0.90000;
	59	 1	 3.17	 0.90	 0.0	 0.6	 0	    1.00000	    0.00000	 110.0	 15	    1.10000	    0.90000;
	60	 1	 -0.0	 0.0	 0.318913	 17.760815	 0	    1.00000	    0.00000	 220.0	 6	    1.10000	    0.90000;
	61	 1	 -0.0	 -0.0	 0.549745	 0.432068	 0	    1.00000	    0.00000	 380.0	 2	    1.10000	    0.90000;
	62	 2	 0.0	 0.0	 0.0	 0.0	 0	    1.00000	    0.00000	 20.0	 5	    1.10000	    0.90000;
	63	 2	 0.0	 0.0	 0.0	 0.0	 0	    1.00000	    0.00000	 20.0	 5	    1.10000	    0.90000;
	64	 1	 165.70	 48.30	 0.0	 5.53	 0	    1.00000	    0.00000	 220.0	 4	    1.10000	    0.90000;
	65	 1	 139.29	 31.80	 0.0	 20.51	 0	    1.00000	    0.00000	 150.0	 8	    1.10000	    0.90000;
	66	 2	 0.0	 0.0	 0.0	 0.0	 0	    1.00000	    0.00000	 20.0	 22	    1.10000	    0.90000;
	67	 1	 0.0	 0.0	 0.0	 0.84	 0	    1.00000	    0.00000	 110.0	 21	    1.10000	    0.90000;
	68	 2	 0.0	 0.0	 0.0	 0.0	 0	    1.00000	    0.00000	 20.0	 4	    1.10000	    0.90000;
	69	 2	 0.0	 0.0	 0.0	 0.0	 0	    1.00000	    0.00000	 20.0	 4	    1.10000	    0.90000;
	70	 1	 110.50	 -26.80	 0.0	 16.37	 0	    1.00000	    0.00000	 220.0	 6	    1.10000	    0.90000;
	71	 1	 -0.0	 -0.0	 0.0	 0.0	 0	    1.00000	    0.00000	 20.0	 5	    1.10000	    0.90000;
	72	 1	 -0.0	 -0.0	 0.0	 0.0	 0	    1.00000	    0.00000	 20.0	 5	    1.10000	    0.90000;
	73	 1	 0.0	 0.0	 0.0	 1.23	 0	    1.00000	    0.00000	 220.0	 3	    1.10000	    0.90000;
	74	 1	 0.0	 -0.0	 0.0	 0.0	 0	    1.00000	    0.00000	 20.0	 5	    1.10000	    0.90000;
	75	 1	 0.0	 -0.0	 0.0	 0.0	 0	    1.00000	    0.00000	 20.0	 5	    1.10000	    0.90000;
	76	 1	 0.0	 -0.0	 0.0	 0.0	 0	    1.00000	    0.00000	 20.0	 5	    1.10000	    0.90000;
	77	 2	 0.0	 0.0	 0.0	 0.0	 0	    1.00000	    0.00000	 20.0	 5	    1.10000	    0.90000;
	78	 2	 0.0	 0.0	 0.0	 0.0	 0	    1.00000	    0.00000	 20.0	 5	    1.10000	    0.90000;
	79	 2	 0.0	 0.0	 0.0	 0.0	 0	    1.00000	    0.00000	 20.0	 5	    1.10000	    0.90000;
	80	 1	 152.82	 79.70	 0.0	 6.5	 0	    1.00000	    0.00000	 220.0	 3	    1.10000	    0.90000;
	81	 1	 23.58	 3.00	 0.0	 3.54	 0	    1.00000	    0.00000	 154.0	 1	    1.10000	    0.90000;
	82	 1	 0.0	 -0.0	 0.0	 2.31	 0	    1.00000	    0.00000	 380.0	 5	    1.10000	    0.90000;
	83	 1	 130.12	 20.70	 0.0	 3.31	 0	    1.00000	    0.00000	 220.0	 5	    1.10000	    0.90000;
	84	 1	 28.85	 9.90	 0.0	 9.57	 0	    1.00000	    0.00000	 110.0	 22	    1.10000	    0.90000;
	85	 1	 0.24	 -1.66	 0.0	 0.65	 0	    1.00000	    0.00000	 110.0	 18	    1.10000	    0.90000;
	86	 2	 0.0	 0.0	 0.0	 0.0	 0	    1.00000	    0.00000	 20.0	 6	    1.10000	    0.90000;
	87	 1	 -0.0	 0.0	 0.0	 0.0	 0	    1.00000	    0.00000	 20.0	 6	    1.10000	    0.90000;
	88	 1	 -0.0	 0.0	 0.0	 0.0	 0	    1.00000	    0.00000	 20.0	 6	    1.10000	    0.90000;
	89	 1	 0.0	 0.0	 0.0	 58.57	 0	    1.00000	    0.00000	 380.0	 3	    1.10000	    0.90000;
	90	 1	 -0.0	 0.0	 0.0	 1.34	 0	    1.00000	    0.00000	 110.0	 18	    1.10000	    0.90000;
	91	 1	 205.11	 110.20	 0.0	 21.25	 0	    1.00000	    0.00000	 380.0	 3	    1.10000	    0.90000;
	92	 1	 16.29	 5.50	 0.0	 1.31	 0	    1.00000	    0.00000	 110.0	 15	    1.10000	    0.90000;
	93	 1	 -18.52	 6.10	 0.0	 0.79	 0	    1.00000	    0.00000	 150.0	 9	    1.10000	    0.90000;
	94	 2	 0.0	 0.0	 0.0	 0.0	 0	    1.00000	    0.00000	 11.0	 1	    1.10000	    0.90000;
	95	 1	 5.03	 1.70	 0.0	 2.32	 0	    1.00000	    0.00000	 110.0	 19	    1.10000	    0.90000;
	96	 2	 0.0	 0.0	 0.0	 0.0	 0	    1.00000	    0.00000	 20.0	 4	    1.10000	    0.90000;
	97	 2	 0.0	 0.0	 0.0	 0.0	 0	    1.00000	    0.00000	 20.0	 4	    1.10000	    0.90000;
	98	 2	 0.0	 0.0	 0.0	 0.0	 0	    1.00000	    0.00000	 20.0	 4	    1.10000	    0.90000;
	99	 2	 0.0	 0.0	 0.0	 0.0	 0	    1.00000	    0.00000	 20.0	 4	    1.10000	    0.90000;
	100	 2	 0.0	 0.0	 0.0	 0.0	 0	    1.00000	    0.00000	 20.0	 4	    1.10000	    0.90000;
	101	 2	 0.0	 0.0	 0.0	 0.0	 0	    1.00000	    0.00000	 20.0	 4	    1.10000	    0.90000;
	102	 2	 0.0	 0.0	 0.0	 0.0	 0	    1.00000	    0.00000	 20.0	 4	    1.10000	    0.90000;
	103	 1	 68.63	 20.50	 0.0	 1.15	 0	    1.00000	    0.00000	 150.0	 8	    1.10000	    0.90000;
	104	 2	 0.0	 0.0	 0.0	 0.0	 0	    1.00000	    0.00000	 20.0	 3	    1.10000	    0.90000;
	105	 1	 14.74	 14.80	 0.0	 132.435168	 0	    1.00000	    0.00000	 380.0	 9	    1.20000	    0.80000;
	106	 1	 137.87	 42.40	 0.0	 55.24	 0	    1.00000	    0.00000	 150.0	 8	    1.10000	    0.90000;
	107	 2	 0.0	 0.0	 0.0	 0.0	 0	    1.00000	    0.00000	 20.0	 3	    1.10000	    0.90000;
	108	 1	 6.91	 -4.60	 0.0	 5.75	 0	    1.00000	    0.00000	 220.0	 4	    1.10000	    0.90000;
	109	 1	 17.16	 5.20	 0.0	 0.11	 0	    1.00000	    0.00000	 110.0	 12	    1.10000	    0.90000;
	110	 2	 0.0	 0.0	 0.0	 0.0	 0	    1.00000	    0.00000	 20.0	 3	    1.10000	    0.90000;
	111	 1	 17.60	 4.30	 0.0	 0.49	 0	    1.00000	    0.00000	 110.0	 23	    1.10000	    0.90000;
	112	 1	 42.29	 6.10	 0.0	 1.17	 0	    1.00000	    0.00000	 220.0	 4	    1.10000	    0.90000;
	113	 1	 24.16	 10.70	 0.0	 14.21	 0	    1.00000	    0.00000	 220.0	 8	    1.10000	    0.90000;
	114	 2	 0.0	 0.0	 0.0	 0.0	 0	    1.00000	    0.00000	 20.0	 4	    1.10000	    0.90000;
	115	 2	 0.0	 0.0	 0.0	 0.0	 0	    1.00000	    0.00000	 20.0	 10	    1.10000	    0.90000;
	116	 1	 0.0	 -0.0	 0.0	 0.73	 0	    1.00000	    0.00000	 220.0	 4	    1.10000	    0.90000;
	117	 1	 0.0	 0.0	 0.0	 0.83	 0	    1.00000	    0.00000	 110.0	 18	    1.10000	    0.90000;
	118	 1	 151.51	 136.70	 0.0	 8.76	 0	    1.00000	    0.00000	 380.0	 3	    1.10000	    0.90000;
	119	 1	 149.87	 66.40	 0.174767	 14.17407	 0	    1.00000	    0.00000	 220.0	 23	    1.10000	    0.90000;
	120	 1	 73.97	 19.18	 0.0	 1.47	 0	    1.00000	    0.00000	 150.0	 1	    1.10000	    0.90000;
	121	 2	 0.0	 0.0	 0.0	 0.0	 0	    1.00000	    0.00000	 20.0	 14	    1.10000	    0.90000;
	122	 1	 0.0	 -0.0	 0.0	 6.62	 0	    1.00000	    0.00000	 220.0	 3	    1.10000	    0.90000;
	123	 1	 -0.0	 -0.0	 0.0	 7.22	 0	    1.00000	    0.00000	 380.0	 1	    1.10000	    0.90000;
	124	 1	 1.09	 0.30	 0.0	 0.19	 0	    1.00000	    0.00000	 110.0	 19	    1.10000	    0.90000;
	125	 1	 22.81	 3.00	 0.0	 5.74	 0	    1.00000	    0.00000	 154.0	 1	    1.10000	    0.90000;
	126	 1	 0.0	 0.0	 0.0	 0.12	 0	    1.00000	    0.00000	 150.0	 9	    1.10000	    0.90000;
	127	 1	 23.49	 5.10	 0.0	 0.5	 0	    1.00000	    0.00000	 110.0	 18	    1.10000	    0.90000;
	128	 1	 78.57	 28.80	 0.0	 11.0	 0	    1.00000	    0.00000	 220.0	 6	    1.10000	    0.90000;
	129	 1	 0.0	 0.0	 0.205132	 4.470744	 0	    1.00000	    0.00000	 380.0	 2	    1.10000	    0.90000;
	130	 1	 396.52	 115.39	 0.0	 3.95	 0	    1.00000	    0.00000	 220.0	 5	    1.10000	    0.90000;
	131	 1	 210.57	 73.30	 0.0	 20.75	 0	    1.00000	    0.00000	 380.0	 3	    1.10000	    0.90000;
	132	 2	 0.0	 0.0	 0.0	 0.0	 0	    1.00000	    0.00000	 11.0	 1	    1.10000	    0.90000;
	133	 2	 0.0	 0.0	 0.0	 0.0	 0	    1.00000	    0.00000	 20.0	 14	    1.10000	    0.90000;
	134	 2	 0.0	 0.0	 0.0	 0.0	 0	    1.00000	    0.00000	 20.0	 4	    1.10000	    0.90000;
	135	 2	 0.0	 0.0	 0.0	 0.0	 0	    1.00000	    0.00000	 20.0	 4	    1.10000	    0.90000;
	136	 2	 0.0	 0.0	 0.0	 0.0	 0	    1.00000	    0.00000	 20.0	 3	    1.10000	    0.90000;
	137	 1	 19.12	 6.30	 0.0	 0.26	 0	    1.00000	    0.00000	 110.0	 19	    1.10000	    0.90000;
	138	 1	 36.18	 12.00	 0.0	 0.65	 0	    1.00000	    0.00000	 110.0	 19	    1.10000	    0.90000;
	139	 1	 44.14	 25.00	 0.0	 9.82	 0	    1.00000	    0.00000	 150.0	 9	    1.10000	    0.90000;
	140	 1	 210.86	 53.37	 0.0	 4.58	 0	    1.00000	    0.00000	 220.0	 5	    1.10000	    0.90000;
	141	 1	 99.01	 25.50	 0.0	 3.11	 0	    1.00000	    0.00000	 220.0	 3	    1.20000	    0.80000;
	142	 1	 176.30	 -58.90	 0.0	 24.77	 0	    1.00000	    0.00000	 380.0	 6	    1.10000	    0.90000;
	143	 1	 39.23	 22.30	 0.0	 0.0	 0	    1.00000	    0.00000	 150.0	 9	    1.10000	    0.90000;
	144	 2	 0.0	 0.0	 0.0	 0.0	 0	    1.00000	    0.00000	 20.0	 14	    1.10000	    0.90000;
	145	 2	 0.0	 0.0	 0.0	 0.0	 0	    1.00000	    0.00000	 20.0	 5	    1.10000	    0.90000;
	146	 2	 0.0	 0.0	 0.0	 0.0	 0	    1.00000	    0.00000	 20.0	 5	    1.10000	    0.90000;
	147	 2	 0.0	 0.0	 0.0	 0.0	 0	    1.00000	    0.00000	 20.0	 5	    1.10000	    0.90000;
	148	 1	 157.08	 123.20	 0.0	 72.64	 0	    1.00000	    0.00000	 380.0	 3	    1.10000	    0.90000;
	149	 1	 -0.0	 -0.0	 0.0	 3.77	 0	    1.00000	    0.00000	 220.0	 6	    1.10000	    0.90000;
	150	 1	 -0.00	 8.40	 0.0	 15.72	 0	    1.00000	    0.00000	 150.0	 9	    1.10000	    0.90000;
	151	 2	 0.0	 0.0	 0.0	 0.0	 0	    1.00000	    0.00000	 13.8	 1	    1.10000	    0.90000;
	152	 1	 51.36	 -8.80	 0.0	 2.15	 0	    1.00000	    0.00000	 220.0	 6	    1.10000	    0.90000;
	153	 2	 0.0	 0.0	 0.0	 0.0	 0	    1.00000	    0.00000	 20.0	 14	    1.10000	    0.90000;
	154	 2	 0.0	 0.0	 0.0	 0.0	 0	    1.00000	    0.00000	 20.0	 3	    1.10000	    0.90000;
	155	 1	 -0.0	 -0.0	 0.0	 82.55	 0	    1.00000	    0.00000	 380.0	 6	    1.10000	    0.90000;
	156	 2	 0.0	 0.0	 0.0	 0.0	 0	    1.00000	    0.00000	 20.0	 6	    1.10000	    0.90000;
	157	 1	 352.25	 11.90	 0.0	 10.28	 0	    1.00000	    0.00000	 380.0	 6	    1.10000	    0.90000;
	158	 1	 331.40	 79.80	 0.019533	 1.690467	 0	    1.00000	    0.00000	 220.0	 5	    1.10000	    0.90000;
	159	 1	 4.15	 1.30	 0.0	 0.4	 0	    1.00000	    0.00000	 110.0	 18	    1.10000	    0.90000;
	160	 1	 149.55	 19.50	 0.0	 4.9	 0	    1.00000	    0.00000	 154.0	 1	    1.10000	    0.90000;
	161	 2	 0.0	 0.0	 0.0	 0.0	 0	    1.00000	    0.00000	 20.0	 6	    1.10000	    0.90000;
	162	 2	 0.0	 0.0	 0.0	 0.0	 0	    1.00000	    0.00000	 20.0	 6	    1.10000	    0.90000;
	163	 1	 0.0	 0.0	 0.0	 0.0	 0	    1.00000	    0.00000	 150.0	 9	    1.10000	    0.90000;
	164	 1	 66.66	 36.00	 0.0	 3.09	 0	    1.00000	    0.00000	 220.0	 11	    1.10000	    0.90000;
	165	 2	 0.0	 0.0	 0.0	 0.0	 0	    1.00000	    0.00000	 20.0	 4	    1.10000	    0.90000;
	166	 1	 -0.0	 0.0	 0.0	 3.24	 0	    1.00000	    0.00000	 220.0	 3	    1.10000	    0.90000;
	167	 1	 0.0	 0.0	 0.0	 6.520303	 0	    1.00000	    0.00000	 380.0	 5	    1.10000	    0.90000;
	168	 1	 60.80	 7.90	 0.0	 4.21	 0	    1.00000	    0.00000	 154.0	 1	    1.10000	    0.90000;
	169	 1	 0.0	 0.0	 0.0	 4.21	 0	    1.00000	    0.00000	 220.0	 5	    1.10000	    0.90000;
	170	 1	 1.96	 0.70	 0.0	 0.3	 0	    1.00000	    0.00000	 110.0	 19	    1.10000	    0.90000;
	171	 1	 0.0	 -0.0	 0.0	 0.71	 0	    1.00000	    0.00000	 150.0	 9	    1.10000	    0.90000;
	172	 1	 2.50	 0.00	 0.0	 0.96	 0	    1.00000	    0.00000	 110.0	 18	    1.10000	    0.90000;
	173	 1	 0.0	 0.0	 0.0	 0.09	 0	    1.00000	    0.00000	 150.0	 9	    1.10000	    0.90000;
	174	 1	 42.51	 11.00	 0.0	 0.64	 0	    1.00000	    0.00000	 110.0	 1	    1.10000	    0.90000;
	175	 1	 49.28	 14.10	 0.0	 0.19	 0	    1.00000	    0.00000	 110.0	 15	    1.10000	    0.90000;
	176	 1	 0.0	 -0.0	 0.0	 5.75	 0	    1.00000	    0.00000	 220.0	 3	    1.10000	    0.90000;
	177	 1	 0.0	 0.0	 0.019004	 4.360996	 0	    1.00000	    0.00000	 220.0	 11	    1.10000	    0.90000;
	178	 1	 0.0	 -0.0	 0.566322	 -0.241138	 0	    1.00000	    0.00000	 220.0	 5	    1.10000	    0.90000;
	179	 2	 0.0	 0.0	 0.0	 0.0	 0	    1.00000	    0.00000	 20.0	 4	    1.10000	    0.90000;
	180	 1	 18.80	 5.70	 0.0	 1.22	 0	    1.00000	    0.00000	 110.0	 21	    1.10000	    0.90000;
	181	 1	 -0.0	 -0.0	 0.0	 0.0	 0	    1.00000	    0.00000	 20.0	 14	    1.10000	    0.90000;
	182	 2	 0.0	 0.0	 0.0	 0.0	 0	    1.00000	    0.00000	 20.0	 20	    1.10000	    0.90000;
	183	 1	 0.0	 0.0	 0.0	 4.3	 0	    1.00000	    0.00000	 220.0	 6	    1.10000	    0.90000;
	184	 1	 25.90	 12.70	 0.0	 0.52	 0	    1.00000	    0.00000	 220.0	 5	    1.10000	    0.90000;
	185	 1	 133.06	 7.40	 0.0	 1.34	 0	    1.00000	    0.00000	 220.0	 3	    1.10000	    0.90000;
	186	 1	 0.0	 -0.0	 0.135375	 47.750675	 0	    1.00000	    0.00000	 380.0	 10	    1.10000	    0.90000;
	187	 1	 51.69	 16.40	 0.0	 4.08	 0	    1.00000	    0.00000	 110.0	 22	    1.10000	    0.90000;
	188	 1	 -0.0	 0.0	 0.0	 0.0	 0	    1.00000	    0.00000	 20.0	 4	    1.10000	    0.90000;
	189	 1	 -0.0	 -0.0	 0.0	 21.39	 0	    1.00000	    0.00000	 380.0	 1	    1.10000	    0.90000;
	190	 1	 41.63	 12.50	 0.0	 6.28	 0	    1.00000	    0.00000	 150.0	 8	    1.10000	    0.90000;
	191	 1	 59.16	 7.80	 0.0	 94.9	 0	    1.00000	    0.00000	 400.0	 1	    1.10000	    0.90000;
	192	 1	 142.56	 84.90	 0.0	 4.22	 0	    1.00000	    0.00000	 220.0	 7	    1.10000	    0.90000;
	193	 1	 8.63	 2.60	 0.0	 0.74	 0	    1.00000	    0.00000	 110.0	 12	    1.10000	    0.90000;
	194	 1	 45.96	 74.61	 0.0	 37.58	 0	    1.00000	    0.00000	 150.0	 1	    1.10000	    0.90000;
	195	 1	 -75.38	 7.80	 0.0	 29.9	 0	    1.00000	    0.00000	 380.0	 10	    1.10000	    0.90000;
	196	 2	 0.0	 0.0	 0.0	 0.0	 0	    1.00000	    0.00000	 20.0	 6	    1.10000	    0.90000;
	197	 2	 0.0	 0.0	 0.0	 0.0	 0	    1.00000	    0.00000	 20.0	 4	    1.10000	    0.90000;
	198	 1	 44.81	 14.30	 0.0	 11.53	 0	    1.00000	    0.00000	 220.0	 6	    1.10000	    0.90000;
	199	 1	 -0.0	 -0.0	 0.0	 4.14	 0	    1.00000	    0.00000	 220.0	 8	    1.10000	    0.90000;
	200	 1	 110.14	 49.30	 0.020067	 4.329933	 0	    1.00000	    0.00000	 220.0	 13	    1.10000	    0.90000;
...
];

%% generator data
%	bus	Pg	Qg	Qmax	Qmin	Vg	mBase	status	Pmax	Pmin
mpc.gen = [
	1	 81.555	 0.0	 75.0	 -75.0	 1.0	 100.0	 1	 149	 14.11; % NG
	12	 187.5	 23.5	 210.0	 -163.0	 1.0	 100.0	 1	 325	 50.0; % NG
	18	 87.3375	 0.0	 81.0	 -81.0	 1.0	 100.0	 1	 162	 12.675; % NG
	29	 50.7975	 0.0	 45.0	 -45.0	 1.0	 100.0	 1	 90	 11.595; % NG
	33	 36.225	 4.0	 40.0	 -32.0	 1.0	 100.0	 1	 64	 8.45; % NG
	39	 168.0	 33.5	 210.0	 -143.0	 1.0	 100.0	 1	 286	 50.0; % COW
	42	 36.1825	 0.0	 34.0	 -34.0	 1.0	 100.0	 1	 67	 5.365; % COW
	45	 263.5	 0.0	 239.0	 -239.0	 1.0	 100.0	 1	 477	 50.0; % COW
	51	 227.0	 0.0	 202.0	 -202.0	 1.0	 100.0	 1	 404	 50.0; % NG
	54	 81.18	 0.0	 75.0	 -75.0	 1.0	 100.0	 1	 150	 12.36; % NG
	62	 433.5	 93.0	 520.0	 -334.0	 1.0	 100.0	 1	 667	 200.0; % COW
	63	 979.0	 0.0	 879.0	 -879.0	 1.0	 100.0	 1	 1758	 200.0; % COW
	66	 201.0	 0.0	 176.0	 -176.0	 1.0	 100.0	 1	 352	 50.0; % NG
	68	 130.4525	 0.0	 122.0	 -122.0	 1.0	 100.0	 1	 243	 17.905; % NG
	69	 89.9525	 0.0	 81.0	 -81.0	 1.0	 100.0	 1	 162	 17.905; % NG
	77	 58.1075	 0.0	 54.0	 -54.0	 1.0	 100.0	 1	 108	 8.215; % NG
	78	 153.08	 0.0	 144.0	 -144.0	 1.0	 100.0	 1	 288	 18.16; % NG
	79	 68.5225	 0.0	 66.0	 -66.0	 1.0	 100.0	 1	 131	 6.045; % NG
	86	 120.5	 0.0	 96.0	 -96.0	 1.0	 100.0	 1	 191	 50.0; % NG
	94	 38.94	 0.0	 36.0	 -36.0	 1.0	 100.0	 1	 72	 5.88; % COW
	96	 62.7375	 0.0	 55.0	 -55.0	 1.0	 100.0	 1	 109	 16.475; % NG
	97	 131.7375	 0.0	 124.0	 -124.0	 1.0	 100.0	 1	 247	 16.475; % NG
	98	 139.7375	 0.0	 132.0	 -132.0	 1.0	 100.0	 1	 263	 16.475; % COW
	99	 43.975	 0.0	 40.0	 -40.0	 1.0	 100.0	 1	 80	 7.95; % NG
	100	 72.475	 0.0	 69.0	 -69.0	 1.0	 100.0	 1	 137	 7.95; % NG
	101	 113.7375	 0.0	 106.0	 -106.0	 1.0	 100.0	 1	 211	 16.475; % COW
	102	 95.2375	 0.0	 87.0	 -87.0	 1.0	 100.0	 1	 174	 16.475; % NG
	104	 222.6575	 0.0	 208.0	 -208.0	 1.0	 100.0	 1	 416	 29.315; % NG
	107	 113.3775	 0.0	 102.0	 -102.0	 1.0	 100.0	 1	 204	 22.755; % COW
	110	 146.245	 0.0	 131.0	 -131.0	 1.0	 100.0	 1	 262	 30.49; % NG
	114	 71.5575	 0.0	 65.0	 -65.0	 1.0	 100.0	 1	 129	 14.115; % NG
	115	 109.725	 0.0	 106.0	 -106.0	 1.0	 100.0	 1	 212	 7.45; % NG
	121	 49.505	 0.0	 44.0	 -44.0	 1.0	 100.0	 1	 87	 12.01; % NG
	132	 20.5875	 0.0	 20.0	 -20.0	 1.0	 100.0	 1	 39	 2.175; % COW
	133	 66.1275	 0.0	 60.0	 -60.0	 1.0	 100.0	 1	 120	 12.255; % NG
	134	 56.59	 0.0	 49.0	 -49.0	 1.0	 100.0	 1	 98	 15.18; % NG
	135	 45.5575	 0.5	 40.0	 -39.0	 1.0	 100.0	 1	 77	 14.115; % PEL
	136	 41.4725	 13.5	 60.0	 -33.0	 1.0	 100.0	 1	 66	 16.945; % NG
	144	 47.9675	 0.0	 45.0	 -45.0	 1.0	 100.0	 1	 90	 5.935; % NG
	145	 589.5	 15.0	 520.0	 -490.0	 1.0	 100.0	 1	 979	 200.0; % COW
	146	 383.5	 118.0	 520.0	 -284.0	 1.0	 100.0	 1	 567	 200.0; % PEL
	147	 372.0	 124.0	 520.0	 -272.0	 1.0	 100.0	 1	 544	 200.0; % NUC
	151	 172.0	 1.5	 150.0	 -147.0	 1.0	 100.0	 1	 294	 50.0; % NG
	153	 47.5225	 0.0	 42.0	 -42.0	 1.0	 100.0	 1	 83	 12.045; % COW
	154	 699.5	 0.0	 575.0	 -575.0	 1.0	 100.0	 1	 1149	 250.0; % NUC
	156	 96.2225	 0.0	 88.0	 -88.0	 1.0	 100.0	 1	 176	 16.445; % NG
	161	 102.2225	 0.0	 94.0	 -94.0	 1.0	 100.0	 1	 188	 16.445; % COW
	162	 105.2225	 0.0	 97.0	 -97.0	 1.0	 100.0	 1	 194	 16.445; % COW
	165	 81.0575	 0.0	 74.0	 -74.0	 1.0	 100.0	 1	 148	 14.115; % NG
	179	 132.3375	 0.0	 117.0	 -117.0	 1.0	 100.0	 1	 233	 31.675; % NG
	182	 58.3275	 0.0	 53.0	 -53.0	 1.0	 100.0	 1	 105	 11.655; % COW
	196	 177.0125	 0.0	 164.0	 -164.0	 1.0	 100.0	 1	 327	 27.025; % NG
	197	 128.5	 28.0	 160.0	 -104.0	 1.0	 100.0	 1	 207	 50.0; % NG
	207	 52.6575	 0.0	 48.0	 -48.0	 1.0	 100.0	 1	 96	 9.315; % NG
	220	 114.2875	 0.0	 98.0	 -98.0	 1.0	 100.0	 1	 196	 32.575; % COW
	221	 141.7875	 0.0	 126.0	 -126.0	 1.0	 100.0	 1	 251	 32.575; % NG
	222	 113.2775	 0.0	 97.0	 -97.0	 1.0	 100.0	 1	 194	 32.555; % NG
	223	 154.2875	 0.0	 138.0	 -138.0	 1.0	 100.0	 1	 276	 32.575; % NG
	224	 81.7775	 0.0	 66.0	 -66.0	 1.0	 100.0	 1	 131	 32.555; % NG
	225	 190.2775	 0.0	 174.0	 -174.0	 1.0	 100.0	 1	 348	 32.555; % NG
	229	 65.505	 0.0	 62.0	 -62.0	 1.0	 100.0	 1	 124	 7.01; % NG
	241	 453.5	 83.0	 520.0	 -354.0	 1.0	 100.0	 1	 707	 200.0; % NG
	243	 29.405	 3.0	 30.0	 -24.0	 1.0	 100.0	 1	 48	 10.81; % NG
	248	 39.8975	 0.0	 36.0	 -36.0	 1.0	 100.0	 1	 71	 8.795; % NG
	250	 186.5	 0.0	 162.0	 -162.0	 1.0	 100.0	 1	 323	 50.0; % COW
	258	 20.3675	 0.0	 19.0	 -19.0	 1.0	 100.0	 1	 38	 2.735; % NG
	259	 35.9175	 0.0	 30.0	 -30.0	 1.0	 100.0	 1	 59	 12.835; % NG
	266	 92.7475	 0.0	 88.0	 -88.0	 1.0	 100.0	 1	 176	 9.495; % NG
	270	 34.5675	 0.0	 32.0	 -32.0	 1.0	 100.0	 1	 63	 6.135; % NG
	271	 465.0	 77.5	 520.0	 -365.0	 1.0	 100.0	 1	 730	 200.0; % COW
	273	 898.5	 0.0	 799.0	 -799.0	 1.0	 100.0	 1	 1597	 200.0; % COW
	274	 491.5	 64.0	 520.0	 -392.0	 1.0	 100.0	 1	 783	 200.0; % COW
	275	 506.0	 57.0	 520.0	 -406.0	 1.0	 100.0	 1	 812	 200.0; % COW
	276	 762.5	 0.0	 663.0	 -663.0	 1.0	 100.0	 1	 1325	 200.0; % NUC
	278	 398.0	 11.0	 320.0	 -298.0	 1.0	 100.0	 1	 596	 200.0; % COW
	283	 10.3325	 0.0	 10.0	 -10.0	 1.0	 100.0	 1	 18	 2.665; % COW
	289	 38.65	 0.0	 33.0	 -33.0	 1.0	 100.0	 1	 65	 12.3; % NG
	294	 74.4675	 0.0	 59.0	 -59.0	 1.0	 100.0	 1	 118	 30.935; % COW
	296	 51.5	 0.0	 48.0	 -48.0	 1.0	 100.0	 1	 96	 7.0; % NG
	299	 176.0	 0.0	 151.0	 -151.0	 1.0	 100.0	 1	 302	 50.0; % COW
	304	 68.1625	 0.0	 62.0	 -62.0	 1.0	 100.0	 1	 123	 13.325; % NG
	305	 71.1225	 0.0	 67.0	 -67.0	 1.0	 100.0	 1	 133	 9.245; % NG
	306	 85.1225	 0.0	 81.0	 -81.0	 1.0	 100.0	 1	 161	 9.245; % NG
	307	 47.9425	 0.0	 45.0	 -45.0	 1.0	 100.0	 1	 90	 5.885; % NG
	308	 82.9425	 0.0	 80.0	 -80.0	 1.0	 100.0	 1	 160	 5.885; % NG
	309	 34.3475	 0.5	 30.0	 -29.0	 1.0	 100.0	 1	 58	 10.695; % NG
	310	 44.3475	 0.0	 39.0	 -39.0	 1.0	 100.0	 1	 78	 10.695; % NG
	311	 65.3475	 0.0	 60.0	 -60.0	 1.0	 100.0	 1	 120	 10.695; % NG
	312	 92.8475	 0.0	 88.0	 -88.0	 1.0	 100.0	 1	 175	 10.695; % COW
	315	 4.3425	 0.0	 10.0	 -10.0	 1.0	 100.0	 1	 8	 0.685; % NG
	323	 224.5	 172.5	 520.0	 -175.0	 1.0	 100.0	 1	 349	 100.0; % COW
	324	 12.3325	 0.0	 12.0	 -12.0	 1.0	 100.0	 1	 23	 1.665; % NG
	325	 19.3	 0.0	 19.0	 -19.0	 1.0	 100.0	 1	 37	 1.6; % NG
	328	 96.09	 0.0	 87.0	 -87.0	 1.0	 100.0	 1	 174	 18.18; % NG
	331	 67.1025	 0.0	 63.0	 -63.0	 1.0	 100.0	 1	 125	 9.205; % NG
	332	 5.8325	 0.0	 10.0	 -10.0	 1.0	 100.0	 1	 11	 0.665; % NG
	336	 38.68	 0.0	 36.0	 -36.0	 1.0	 100.0	 1	 72	 5.36; % NG
	338	 39.68	 0.0	 37.0	 -37.0	 1.0	 100.0	 1	 74	 5.36; % NG
	345	 344.0	 0.0	 294.0	 -294.0	 1.0	 100.0	 1	 588	 100.0; % COW
	346	 293.5	 0.0	 244.0	 -244.0	 1.0	 100.0	 1	 487	 100.0; % COW
	351	 182.5	 26.0	 210.0	 -158.0	 1.0	 100.0	 1	 315	 50.0; % NG
	354	 36.57	 0.0	 31.0	 -31.0	 1.0	 100.0	 1	 61	 12.14; % NG
	358	 286.5	 0.0	 262.0	 -262.0	 1.0	 100.0	 1	 523	 50.0; % NG
	360	 156.02	 0.0	 142.0	 -142.0	 1.0	 100.0	 1	 284	 28.04; % COW
	361	 96.52	 0.0	 83.0	 -83.0	 1.0	 100.0	 1	 165	 28.04; % NG
	362	 83.52	 0.0	 70.0	 -70.0	 1.0	 100.0	 1	 139	 28.04; % NG
	363	 92.02	 0.0	 78.0	 -78.0	 1.0	 100.0	 1	 156	 28.04; % NG
	364	 7.875	 0.0	 10.0	 -10.0	 1.0	 100.0	 1	 14	 1.75; % NG
	365	 97.8675	 14.0	 110.0	 -82.0	 1.0	 100.0	 1	 164	 31.735; % NG
	368	 160.02	 0.0	 146.0	 -146.0	 1.0	 100.0	 1	 292	 28.04; % NG
	369	 103.52	 0.0	 90.0	 -90.0	 1.0	 100.0	 1	 179	 28.04; % NG
	382	 171.505	 0.0	 155.0	 -155.0	 1.0	 100.0	 1	 309	 34.01; % NG
	383	 94.04	 0.0	 77.0	 -77.0	 1.0	 100.0	 1	 154	 34.08; % NG
	392	 11.1725	 0.0	 11.0	 -11.0	 1.0	 100.0	 1	 22	 0.345; % NG
	394	 74.3175	 0.0	 68.0	 -68.0	 1.0	 100.0	 1	 136	 12.635; % NG
	395	 77.205	 0.0	 71.0	 -71.0	 1.0	 100.0	 1	 142	 12.41; % NG
	396	 127.7125	 0.0	 114.0	 -114.0	 1.0	 100.0	 1	 227	 28.425; % NG
	400	 80.25	 0.0	 65.0	 -65.0	 1.0	 100.0	 1	 129	 31.5; % NG
	405	 59.1075	 0.0	 54.0	 -54.0	 1.0	 100.0	 1	 107	 11.215; % COW
	406	 63.6075	 0.0	 58.0	 -58.0	 1.0	 100.0	 1	 116	 11.215; % NG
	408	 71.32	 0.0	 66.0	 -66.0	 1.0	 100.0	 1	 131	 11.64; % NG
	423	 3.165	 0.0	 10.0	 -10.0	 1.0	 100.0	 1	 6	 0.33; % NG
	432	 12.25	 0.0	 12.0	 -12.0	 1.0	 100.0	 1	 23	 1.5; % NG
	433	 98.0075	 0.0	 93.0	 -93.0	 1.0	 100.0	 1	 186	 10.015; % COW
	438	 67.5225	 0.0	 65.0	 -65.0	 1.0	 100.0	 1	 129	 6.045; % NG
	442	 109.225	 0.0	 104.0	 -104.0	 1.0	 100.0	 1	 208	 10.45; % NG
	448	 55.2025	 0.0	 51.0	 -51.0	 1.0	 100.0	 1	 102	 8.405; % COW
	454	 9.8925	 0.0	 10.0	 -10.0	 1.0	 100.0	 1	 17	 2.785; % NG
	458	 56.2125	 0.0	 51.0	 -51.0	 1.0	 100.0	 1	 102	 10.425; % NG
	463	 59.68	 0.0	 100000.0	 -100000.0	 1.0	 100.0	 1	 146	 -26.64; % COW
	470	 81.9675	 0.0	 70.0	 -70.0	 1.0	 100.0	 1	 139	 24.935; % NG
	476	 110.5	 56.4	 210.0	 -97.2	 1.0	 100.0	 1	 171	 50.0; % NG
	477	 103.8375	 0.0	 98.0	 -98.0	 1.0	 100.0	 1	 195	 12.675; % NG
	480	 89.3675	 0.0	 75.0	 -75.0	 1.0	 100.0	 1	 149	 29.735; % NG
	481	 75.3675	 0.0	 61.0	 -61.0	 1.0	 100.0	 1	 121	 29.735; % NG
	482	 141.3675	 0.0	 127.0	 -127.0	 1.0	 100.0	 1	 253	 29.735; % NG
	483	 173.8675	 0.0	 159.0	 -159.0	 1.0	 100.0	 1	 318	 29.735; % COW
	485	 254.5	 2.5	 210.0	 -205.0	 1.0	 100.0	 1	 409	 100.0; % COW
	492	 157.5	 33.0	 210.0	 -144.0	 1.0	 100.0	 1	 265	 50.0; % COW
	496	 167.7125	 0.0	 157.0	 -157.0	 1.0	 100.0	 1	 314	 21.425; % COW
	508	 506.0	 69.5	 520.0	 -381.0	 1.0	 100.0	 1	 762	 250.0; % COW
	509	 613.0	 16.0	 520.0	 -488.0	 1.0	 100.0	 1	 976	 250.0; % COW
	510	 754.0	 0.0	 629.0	 -629.0	 1.0	 100.0	 1	 1258	 250.0; % COW
	514	 722.5	 0.0	 598.0	 -598.0	 1.0	 100.0	 1	 1195	 250.0; % COW
	516	 80.4275	 0.0	 75.0	 -75.0	 1.0	 100.0	 1	 150	 10.855; % NG
	528	 40.9425	 0.0	 37.0	 -37.0	 1.0	 100.0	 1	 74	 7.885; % COW
	531	 88.465	 0.0	 82.0	 -82.0	 1.0	 100.0	 1	 164	 12.93; % COW
	532	 159.5	 37.5	 210.0	 -135.0	 1.0	 100.0	 1	 269	 50.0; % NG
	533	 228.5	 0.0	 204.0	 -204.0	 1.0	 100.0	 1	 407	 50.0; % NG
	539	 126.0	 0.0	 101.0	 -101.0	 1.0	 100.0	 1	 202	 50.0; % NG
	552	 78.1	 0.0	 73.0	 -73.0	 1.0	 100.0	 1	 146	 10.2; % NG
	559	 142.0825	 0.0	 134.0	 -134.0	 1.0	 100.0	 1	 267	 17.165; % NG
	564	 34.6275	 0.0	 31.0	 -31.0	 1.0	 100.0	 1	 62	 7.255; % NG
	572	 12.6675	 0.0	 12.0	 -12.0	 1.0	 100.0	 1	 23	 2.335; % NG
	575	 28.515	 2.0	 30.0	 -26.0	 1.0	 100.0	 1	 51	 6.03; % NG
	576	 37.515	 0.0	 35.0	 -35.0	 1.0	 100.0	 1	 69	 6.03; % NG
	577	 71.515	 0.0	 69.0	 -69.0	 1.0	 100.0	 1	 137	 6.03; % COW
	581	 54.515	 0.0	 52.0	 -52.0	 1.0	 100.0	 1	 103	 6.03; % NG
	585	 101.6025	 0.0	 90.0	 -90.0	 1.0	 100.0	 1	 179	 24.205; % NG
	589	 34.73	 0.0	 33.0	 -33.0	 1.0	 100.0	 1	 65	 4.46; % NG
	610	 84.325	 0.0	 79.0	 -79.0	 1.0	 100.0	 1	 158	 10.65; % NG
	614	 60.8025	 0.0	 55.0	 -55.0	 1.0	 100.0	 1	 110	 11.605; % NG
	615	 154.8025	 0.0	 149.0	 -149.0	 1.0	 100.0	 1	 298	 11.605; % NG
	619	 49.0825	 0.0	 42.0	 -42.0	 1.0	 100.0	 1	 84	 14.165; % NG
	621	 6.9675	 0.0	 10.0	 -10.0	 1.0	 100.0	 1	 12	 1.935; % NG
	623	 48.005	 0.0	 42.0	 -42.0	 1.0	 100.0	 1	 84	 12.01; % NG
	626	 72.215	 0.0	 65.0	 -65.0	 1.0	 100.0	 1	 130	 14.43; % NG
	635	 1.0225	 0.0	 10.0	 -10.0	 1.0	 100.0	 1	 2	 0.045; % NG
	637	 78.2025	 0.0	 74.0	 -74.0	 1.0	 100.0	 1	 148	 8.405; % COW
	646	 234.5	 12.5	 210.0	 -185.0	 1.0	 100.0	 1	 369	 100.0; % COW
	648	 218.5	 20.5	 210.0	 -169.0	 1.0	 100.0	 1	 337	 100.0; % COW
	649	 251.5	 4.0	 210.0	 -202.0	 1.0	 100.0	 1	 403	 100.0; % NG
	651	 320.5	 0.0	 296.0	 -296.0	 1.0	 100.0	 1	 591	 50.0; % NG
	652	 250.0	 0.0	 225.0	 -225.0	 1.0	 100.0	 1	 450	 50.0; % NG
	654	 195.9	 0.0	 181.0	 -181.0	 1.0	 100.0	 1	 361	 30.8; % NG
	660	 70.035	 0.0	 65.0	 -65.0	 1.0	 100.0	 1	 129	 11.07; % NG
	666	 72.7175	 0.0	 68.0	 -68.0	 1.0	 100.0	 1	 135	 10.435; % NG
	671	 28.2	 0.0	 24.0	 -24.0	 1.0	 100.0	 1	 48	 8.4; % NG
	676	 345.0	 0.0	 320.0	 -320.0	 1.0	 100.0	 1	 640	 50.0; % COW
	681	 92.1125	 0.0	 78.0	 -78.0	 1.0	 100.0	 1	 156	 28.225; % NG
	684	 119.9825	 0.0	 109.0	 -109.0	 1.0	 100.0	 1	 217	 22.965; % NG
	693	 147.5	 18.5	 160.0	 -123.0	 1.0	 100.0	 1	 245	 50.0; % NG
	695	 26.4	 0.0	 25.0	 -25.0	 1.0	 100.0	 1	 50	 2.8; % NG
	698	 31.9525	 0.0	 28.0	 -28.0	 1.0	 100.0	 1	 55	 8.905; % NG
	709	 774.0	 0.0	 674.0	 -674.0	 1.0	 100.0	 1	 1348	 200.0; % COW
	715	 120.9825	 0.0	 117.0	 -117.0	 1.0	 100.0	 1	 234	 7.965; % NG
	717	 22.8525	 0.0	 19.0	 -19.0	 1.0	 100.0	 1	 38	 7.705; % COW
	721	 164.8925	 0.0	 153.0	 -153.0	 1.0	 100.0	 1	 305	 24.785; % NG
	724	 48.4175	 0.0	 43.0	 -43.0	 1.0	 100.0	 1	 85	 11.835; % COW
	730	 119.91	 0.0	 104.0	 -104.0	 1.0	 100.0	 1	 207	 32.82; % NG
	731	 82.91	 0.0	 67.0	 -67.0	 1.0	 100.0	 1	 133	 32.82; % NG
	732	 80.41	 0.0	 64.0	 -64.0	 1.0	 100.0	 1	 128	 32.82; % NG
	734	 99.41	 0.0	 83.0	 -83.0	 1.0	 100.0	 1	 166	 32.82; % NG
	746	 54.6675	 0.0	 52.0	 -52.0	 1.0	 100.0	 1	 104	 5.335; % NG
	749	 29.2625	 2.0	 30.0	 -26.0	 1.0	 100.0	 1	 51	 7.525; % NG
	750	 104.2625	 0.0	 101.0	 -101.0	 1.0	 100.0	 1	 201	 7.525; % NG
	751	 112.2625	 0.0	 109.0	 -109.0	 1.0	 100.0	 1	 217	 7.525; % COW
	753	 86.44	 0.0	 83.0	 -83.0	 1.0	 100.0	 1	 166	 6.88; % COW
	754	 116.775	 0.0	 106.0	 -106.0	 1.0	 100.0	 1	 212	 21.55; % NG
	765	 74.0625	 0.0	 61.0	 -61.0	 1.0	 100.0	 1	 122	 26.125; % NG
...
];

%% generator cost data
%	2	startup	shutdown	n	c(n-1)	...	c0
mpc.gencost = [
	2	 0.0	 0.0	 3	   0.000000	  27.954228	   0.000000; % NG
	2	 0.0	 0.0	 3	   0.000000	  30.143713	   0.000000; % NG
	2	 0.0	 0.0	 3	   0.000000	  38.023300	   0.000000; % NG
	2	 0.0	 0.0	 3	   0.000000	  51.463262	   0.000000; % NG
	2	 0.0	 0.0	 3	   0.000000	  28.508304	   0.000000; % NG
	2	 0.0	 0.0	 3	   0.000000	  24.808540	   0.000000; % COW
	2	 0.0	 0.0	 3	   0.000000	  25.015714	   0.000000; % COW
	2	 0.0	 0.0	 3	   0.000000	  40.567642	   0.000000; % COW
	2	 0.0	 0.0	 3	   0.000000	  32.120316	   0.000000; % NG
	2	 0.0	 0.0	 3	   0.000000	  24.661962	   0.000000; % NG
	2	 0.0	 0.0	 3	   0.000000	  10.481931	   0.000000; % COW
	2	 0.0	 0.0	 3	   0.000000	  19.669638	   0.000000; % COW
	2	 0.0	 0.0	 3	   0.000000	  26.400897	   0.000000; % NG
	2	 0.0	 0.0	 3	   0.000000	  25.031117	   0.000000; % NG
	2	 0.0	 0.0	 3	   0.000000	  44.242378	   0.000000; % NG
	2	 0.0	 0.0	 3	   0.000000	  50.339155	   0.000000; % NG
	2	 0.0	 0.0	 3	   0.000000	  52.825019	   0.000000; % NG
	2	 0.0	 0.0	 3	   0.000000	  26.377178	   0.000000; % NG
	2	 0.0	 0.0	 3	   0.000000	  34.832187	   0.000000; % NG
	2	 0.0	 0.0	 3	   0.000000	  32.128379	   0.000000; % COW
	2	 0.0	 0.0	 3	   0.000000	  26.316094	   0.000000; % NG
	2	 0.0	 0.0	 3	   0.000000	  35.162551	   0.000000; % NG
	2	 0.0	 0.0	 3	   0.000000	  18.080374	   0.000000; % COW
	2	 0.0	 0.0	 3	   0.000000	  46.336521	   0.000000; % NG
	2	 0.0	 0.0	 3	   0.000000	  50.130798	   0.000000; % NG
	2	 0.0	 0.0	 3	   0.000000	  38.676174	   0.000000; % COW
	2	 0.0	 0.0	 3	   0.000000	  36.196636	   0.000000; % NG
	2	 0.0	 0.0	 3	   0.000000	  22.860664	   0.000000; % NG
	2	 0.0	 0.0	 3	   0.000000	  37.210300	   0.000000; % COW
	2	 0.0	 0.0	 3	   0.000000	  35.695448	   0.000000; % NG
	2	 0.0	 0.0	 3	   0.000000	  35.014750	   0.000000; % NG
	2	 0.0	 0.0	 3	   0.000000	  36.955337	   0.000000; % NG
	2	 0.0	 0.0	 3	   0.000000	  16.737375	   0.000000; % NG
	2	 0.0	 0.0	 3	   0.000000	  18.886235	   0.000000; % COW
	2	 0.0	 0.0	 3	   0.000000	  29.057666	   0.000000; % NG
	2	 0.0	 0.0	 3	   0.000000	  26.641399	   0.000000; % NG
	2	 0.0	 0.0	 3	   0.000000	  30.069068	   0.000000; % PEL
	2	 0.0	 0.0	 3	   0.000000	  35.720301	   0.000000; % NG
	2	 0.0	 0.0	 3	   0.000000	  44.940127	   0.000000; % NG
	2	 0.0	 0.0	 3	   0.000000	  23.200856	   0.000000; % COW
	2	 0.0	 0.0	 3	   0.000000	  32.879743	   0.000000; % PEL
	2	 0.0	 0.0	 3	   0.000000	  34.567664	   0.000000; % NUC
	2	 0.0	 0.0	 3	   0.000000	  50.488486	   0.000000; % NG
	2	 0.0	 0.0	 3	   0.000000	  34.505449	   0.000000; % COW
	2	 0.0	 0.0	 3	   0.000000	   6.756078	   0.000000; % NUC
	2	 0.0	 0.0	 3	   0.000000	  39.927862	   0.000000; % NG
	2	 0.0	 0.0	 3	   0.000000	  25.641926	   0.000000; % COW
	2	 0.0	 0.0	 3	   0.000000	  13.552185	   0.000000; % COW
	2	 0.0	 0.0	 3	   0.000000	  37.917450	   0.000000; % NG
	2	 0.0	 0.0	 3	   0.000000	  23.221093	   0.000000; % NG
	2	 0.0	 0.0	 3	   0.000000	  41.129152	   0.000000; % COW
	2	 0.0	 0.0	 3	   0.000000	  28.349309	   0.000000; % NG
	2	 0.0	 0.0	 3	   0.000000	  27.946972	   0.000000; % NG
	2	 0.0	 0.0	 3	   0.000000	  41.060699	   0.000000; % NG
	2	 0.0	 0.0	 3	   0.000000	  27.294041	   0.000000; % COW
	2	 0.0	 0.0	 3	   0.000000	  32.316737	   0.000000; % NG
	2	 0.0	 0.0	 3	   0.000000	  32.022137	   0.000000; % NG
	2	 0.0	 0.0	 3	   0.000000	  40.725019	   0.000000; % NG
	2	 0.0	 0.0	 3	   0.000000	  45.652507	   0.000000; % NG
	2	 0.0	 0.0	 3	   0.000000	  29.102393	   0.000000; % NG
	2	 0.0	 0.0	 3	   0.000000	  17.361215	   0.000000; % NG
	2	 0.0	 0.0	 3	   0.000000	  21.185940	   0.000000; % NG
	2	 0.0	 0.0	 3	   0.000000	  56.255608	   0.000000; % NG
	2	 0.0	 0.0	 3	   0.000000	  25.118419	   0.000000; % NG
	2	 0.0	 0.0	 3	   0.000000	  27.942449	   0.000000; % COW
	2	 0.0	 0.0	 3	   0.000000	  54.916011	   0.000000; % NG
	2	 0.0	 0.0	 3	   0.000000	  44.841073	   0.000000; % NG
	2	 0.0	 0.0	 3	   0.000000	  40.268096	   0.000000; % NG
	2	 0.0	 0.0	 3	   0.000000	  33.360233	   0.000000; % NG
	2	 0.0	 0.0	 3	   0.000000	  39.482304	   0.000000; % COW
	2	 0.0	 0.0	 3	   0.000000	  28.612526	   0.000000; % COW
	2	 0.0	 0.0	 3	   0.000000	  36.673979	   0.000000; % COW
	2	 0.0	 0.0	 3	   0.000000	  44.346833	   0.000000; % COW
	2	 0.0	 0.0	 3	   0.000000	   9.850911	   0.000000; % NUC
	2	 0.0	 0.0	 3	   0.000000	  17.961633	   0.000000; % COW
	2	 0.0	 0.0	 3	   0.000000	  47.879405	   0.000000; % COW
	2	 0.0	 0.0	 3	   0.000000	  24.682295	   0.000000; % NG
	2	 0.0	 0.0	 3	   0.000000	  25.955846	   0.000000; % COW
	2	 0.0	 0.0	 3	   0.000000	  27.815055	   0.000000; % NG
	2	 0.0	 0.0	 3	   0.000000	  28.395029	   0.000000; % COW
	2	 0.0	 0.0	 3	   0.000000	  27.648114	   0.000000; % NG
	2	 0.0	 0.0	 3	   0.000000	  23.687958	   0.000000; % NG
	2	 0.0	 0.0	 3	   0.000000	  23.088330	   0.000000; % NG
	2	 0.0	 0.0	 3	   0.000000	  26.520964	   0.000000; % NG
	2	 0.0	 0.0	 3	   0.000000	  30.244256	   0.000000; % NG
	2	 0.0	 0.0	 3	   0.000000	  55.006030	   0.000000; % NG
	2	 0.0	 0.0	 3	   0.000000	  56.557792	   0.000000; % NG
	2	 0.0	 0.0	 3	   0.000000	  38.802205	   0.000000; % NG
	2	 0.0	 0.0	 3	   0.000000	  42.115886	   0.000000; % COW
	2	 0.0	 0.0	 3	   0.000000	  13.523820	   0.000000; % NG
	2	 0.0	 0.0	 3	   0.000000	   9.541324	   0.000000; % COW
	2	 0.0	 0.0	 3	   0.000000	  42.895105	   0.000000; % NG
	2	 0.0	 0.0	 3	   0.000000	  30.531307	   0.000000; % NG
	2	 0.0	 0.0	 3	   0.000000	  21.243375	   0.000000; % NG
	2	 0.0	 0.0	 3	   0.000000	  26.132596	   0.000000; % NG
	2	 0.0	 0.0	 3	   0.000000	  27.469462	   0.000000; % NG
	2	 0.0	 0.0	 3	   0.000000	  37.188084	   0.000000; % NG
	2	 0.0	 0.0	 3	   0.000000	  24.797374	   0.000000; % NG
	2	 0.0	 0.0	 3	   0.000000	   2.807034	   0.000000; % COW
	2	 0.0	 0.0	 3	   0.000000	  38.330795	   0.000000; % COW
	2	 0.0	 0.0	 3	   0.000000	  15.797323	   0.000000; % NG
	2	 0.0	 0.0	 3	   0.000000	  37.691261	   0.000000; % NG
	2	 0.0	 0.0	 3	   0.000000	  37.092772	   0.000000; % NG
	2	 0.0	 0.0	 3	   0.000000	  43.022659	   0.000000; % COW
	2	 0.0	 0.0	 3	   0.000000	  42.206209	   0.000000; % NG
	2	 0.0	 0.0	 3	   0.000000	  43.679004	   0.000000; % NG
	2	 0.0	 0.0	 3	   0.000000	  18.085532	   0.000000; % NG
	2	 0.0	 0.0	 3	   0.000000	  29.229155	   0.000000; % NG
	2	 0.0	 0.0	 3	   0.000000	  43.233444	   0.000000; % NG
	2	 0.0	 0.0	 3	   0.000000	  31.780348	   0.000000; % NG
	2	 0.0	 0.0	 3	   0.000000	  47.266202	   0.000000; % NG
	2	 0.0	 0.0	 3	   0.000000	  21.698023	   0.000000; % NG
	2	 0.0	 0.0	 3	   0.000000	  30.002466	   0.000000; % NG
	2	 0.0	 0.0	 3	   0.000000	  25.961595	   0.000000; % NG
	2	 0.0	 0.0	 3	   0.000000	  21.257100	   0.000000; % NG
	2	 0.0	 0.0	 3	   0.000000	  20.566299	   0.000000; % NG
	2	 0.0	 0.0	 3	   0.000000	  33.960736	   0.000000; % NG
	2	 0.0	 0.0	 3	   0.000000	  25.781055	   0.000000; % NG
	2	 0.0	 0.0	 3	   0.000000	  33.191530	   0.000000; % COW
	2	 0.0	 0.0	 3	   0.000000	  28.822356	   0.000000; % NG
	2	 0.0	 0.0	 3	   0.000000	  19.962398	   0.000000; % NG
	2	 0.0	 0.0	 3	   0.000000	  25.802543	   0.000000; % NG
	2	 0.0	 0.0	 3	   0.000000	  17.037271	   0.000000; % NG
	2	 0.0	 0.0	 3	   0.000000	  10.803317	   0.000000; % COW
	2	 0.0	 0.0	 3	   0.000000	  23.884582	   0.000000; % NG
	2	 0.0	 0.0	 3	   0.000000	  22.591668	   0.000000; % NG
	2	 0.0	 0.0	 3	   0.000000	  24.389730	   0.000000; % COW
	2	 0.0	 0.0	 3	   0.000000	  27.024243	   0.000000; % NG
	2	 0.0	 0.0	 3	   0.000000	  32.776801	   0.000000; % NG
	2	 0.0	 0.0	 3	   0.000000	  36.706552	   0.000000; % COW
	2	 0.0	 0.0	 3	   0.000000	  41.255239	   0.000000; % NG
	2	 0.0	 0.0	 3	   0.000000	  33.330803	   0.000000; % NG
	2	 0.0	 0.0	 3	   0.000000	  42.334739	   0.000000; % NG
	2	 0.0	 0.0	 3	   0.000000	  19.165927	   0.000000; % NG
	2	 0.0	 0.0	 3	   0.000000	  33.607600	   0.000000; % NG
	2	 0.0	 0.0	 3	   0.000000	  52.280667	   0.000000; % NG
	2	 0.0	 0.0	 3	   0.000000	  36.346690	   0.000000; % COW
	2	 0.0	 0.0	 3	   0.000000	  31.509925	   0.000000; % COW
	2	 0.0	 0.0	 3	   0.000000	  38.709892	   0.000000; % COW
	2	 0.0	 0.0	 3	   0.000000	  37.001340	   0.000000; % COW
	2	 0.0	 0.0	 3	   0.000000	   7.817212	   0.000000; % COW
	2	 0.0	 0.0	 3	   0.000000	  28.307705	   0.000000; % COW
	2	 0.0	 0.0	 3	   0.000000	   7.727480	   0.000000; % COW
	2	 0.0	 0.0	 3	   0.000000	  31.844451	   0.000000; % COW
	2	 0.0	 0.0	 3	   0.000000	  37.050856	   0.000000; % NG
	2	 0.0	 0.0	 3	   0.000000	  31.201224	   0.000000; % COW
	2	 0.0	 0.0	 3	   0.000000	  25.167792	   0.000000; % COW
	2	 0.0	 0.0	 3	   0.000000	  55.853240	   0.000000; % NG
	2	 0.0	 0.0	 3	   0.000000	  33.074043	   0.000000; % NG
	2	 0.0	 0.0	 3	   0.000000	  32.702483	   0.000000; % NG
	2	 0.0	 0.0	 3	   0.000000	  33.829440	   0.000000; % NG
	2	 0.0	 0.0	 3	   0.000000	  33.232632	   0.000000; % NG
	2	 0.0	 0.0	 3	   0.000000	  33.893354	   0.000000; % NG
	2	 0.0	 0.0	 3	   0.000000	  19.159760	   0.000000; % NG
	2	 0.0	 0.0	 3	   0.000000	  52.733756	   0.000000; % NG
	2	 0.0	 0.0	 3	   0.000000	  12.561403	   0.000000; % NG
	2	 0.0	 0.0	 3	   0.000000	  29.657106	   0.000000; % COW
	2	 0.0	 0.0	 3	   0.000000	  31.494973	   0.000000; % NG
	2	 0.0	 0.0	 3	   0.000000	   5.844693	   0.000000; % NG
	2	 0.0	 0.0	 3	   0.000000	  33.208792	   0.000000; % NG
	2	 0.0	 0.0	 3	   0.000000	  13.388423	   0.000000; % NG
	2	 0.0	 0.0	 3	   0.000000	  50.799253	   0.000000; % NG
	2	 0.0	 0.0	 3	   0.000000	  61.398490	   0.000000; % NG
	2	 0.0	 0.0	 3	   0.000000	  45.218817	   0.000000; % NG
	2	 0.0	 0.0	 3	   0.000000	  27.364734	   0.000000; % NG
	2	 0.0	 0.0	 3	   0.000000	  22.791247	   0.000000; % NG
	2	 0.0	 0.0	 3	   0.000000	  37.236281	   0.000000; % NG
	2	 0.0	 0.0	 3	   0.000000	  15.262407	   0.000000; % NG
	2	 0.0	 0.0	 3	   0.000000	  35.093584	   0.000000; % COW
	2	 0.0	 0.0	 3	   0.000000	  22.026018	   0.000000; % COW
	2	 0.0	 0.0	 3	   0.000000	  17.210590	   0.000000; % COW
	2	 0.0	 0.0	 3	   0.000000	  17.497695	   0.000000; % NG
	2	 0.0	 0.0	 3	   0.000000	  31.809831	   0.000000; % NG
	2	 0.0	 0.0	 3	   0.000000	  27.131772	   0.000000; % NG
	2	 0.0	 0.0	 3	   0.000000	   8.724450	   0.000000; % NG
	2	 0.0	 0.0	 3	   0.000000	  20.033813	   0.000000; % NG
	2	 0.0	 0.0	 3	   0.000000	  24.904989	   0.000000; % NG
	2	 0.0	 0.0	 3	   0.000000	  30.783500	   0.000000; % NG
	2	 0.0	 0.0	 3	   0.000000	   7.212610	   0.000000; % COW
	2	 0.0	 0.0	 3	   0.000000	  24.133309	   0.000000; % NG
	2	 0.0	 0.0	 3	   0.000000	  31.831396	   0.000000; % NG
	2	 0.0	 0.0	 3	   0.000000	  27.026804	   0.000000; % NG
	2	 0.0	 0.0	 3	   0.000000	  32.298717	   0.000000; % NG
	2	 0.0	 0.0	 3	   0.000000	  32.611810	   0.000000; % NG
	2	 0.0	 0.0	 3	   0.000000	  14.350541	   0.000000; % COW
	2	 0.0	 0.0	 3	   0.000000	  37.706440	   0.000000; % NG
	2	 0.0	 0.0	 3	   0.000000	  25.677674	   0.000000; % COW
	2	 0.0	 0.0	 3	   0.000000	  38.305847	   0.000000; % NG
	2	 0.0	 0.0	 3	   0.000000	  30.627595	   0.000000; % COW
	2	 0.0	 0.0	 3	   0.000000	  40.028120	   0.000000; % NG
	2	 0.0	 0.0	 3	   0.000000	  42.239015	   0.000000; % NG
	2	 0.0	 0.0	 3	   0.000000	  51.867892	   0.000000; % NG
	2	 0.0	 0.0	 3	   0.000000	  14.573395	   0.000000; % NG
	2	 0.0	 0.0	 3	   0.000000	  31.444624	   0.000000; % NG
	2	 0.0	 0.0	 3	   0.000000	  36.224722	   0.000000; % NG
	2	 0.0	 0.0	 3	   0.000000	  26.487608	   0.000000; % NG
	2	 0.0	 0.0	 3	   0.000000	  43.282317	   0.000000; % COW
	2	 0.0	 0.0	 3	   0.000000	  28.198563	   0.000000; % COW
	2	 0.0	 0.0	 3	   0.000000	  41.156531	   0.000000; % NG
	2	 0.0	 0.0	 3	   0.000000	  49.043926	   0.000000; % NG
...
];

%% branch data
%	fbus	tbus	r	x	b	rateA	rateB	rateC	ratio	angle	status	angmin	angmax
mpc.branch = [
	7519	 4482	 0.0006	 0.00616	 0.0	 5104.0	 5104.0	 5104.0	 0.0	 0.0	 1	 -30.0	 30.0;
	7519	 11823	 0.0005	 0.0074	 0.0	 4259.0	 4259.0	 4259.0	 0.0	 0.0	 1	 -30.0	 30.0;
	3073	 4516	 0.00107	 0.00626	 0.0	 4974.0	 4974.0	 4974.0	 0.0	 0.0	 1	 -30.0	 30.0;
	3073	 4706	 0.000841	 0.0055	 0.0	 5678.0	 5678.0	 5678.0	 0.0	 0.0	 1	 -30.0	 30.0;
	5157	 1032	 0.00143	 0.01563	 0.0	 2013.0	 2013.0	 2013.0	 0.0	 0.0	 1	 -30.0	 30.0;
	5157	 6653	 0.00146	 0.01692	 0.0	 1860.0	 1860.0	 1860.0	 0.0	 0.0	 1	 -30.0	 30.0;
	628	 7896	 7e-05	 0.00057	 0.0	 55004.0	 55004.0	 55004.0	 0.0	 0.0	 1	 -30.0	 30.0;
	628	 6592	 6e-05	 0.00056	 0.0	 56085.0	 56085.0	 56085.0	 0.0	 0.0	 1	 -30.0	 30.0;
	11792	 10888	 0.003349	 0.01656	 0.0	 1870.0	 1870.0	 1870.0	 0.0	 0.0	 1	 -30.0	 30.0;
	11792	 4609	 0.003409	 0.016211	 0.0	 1907.0	 1907.0	 1907.0	 0.0	 0.0	 1	 -30.0	 30.0;
	6573	 10888	 0.003479	 0.01586	 0.0	 1946.0	 1946.0	 1946.0	 0.0	 0.0	 1	 -30.0	 30.0;
	6573	 4609	 0.003099	 0.017969	 0.0	 1733.0	 1733.0	 1733.0	 0.0	 0.0	 1	 -30.0	 30.0;
	782	 13300	 0.00127	 0.01842	 0.0	 1711.0	 1711.0	 1711.0	 0.0	 0.0	 1	 -30.0	 30.0;
	782	 1186	 0.00126	 0.01847	 0.0	 1707.0	 1707.0	 1707.0	 0.0	 0.0	 1	 -30.0	 30.0;
	11715	 924	 0.0013	 0.01808	 0.0	 1743.0	 1743.0	 1743.0	 0.0	 0.0	 1	 -30.0	 30.0;
	11715	 12182	 0.00131	 0.01765	 0.0	 1785.0	 1785.0	 1785.0	 0.0	 0.0	 1	 -30.0	 30.0;
	10257	 2582	 0.00065	 0.01311	 0.0	 2891.0	 2891.0	 2891.0	 0.0	 0.0	 1	 -30.0	 30.0;
	10257	 9363	 0.00067	 0.00974	 0.0	 3851.0	 3851.0	 3851.0	 0.0	 0.0	 1	 -30.0	 30.0;
	7595	 11501	 0.00236	 0.01418	 0.0	 2198.0	 2198.0	 2198.0	 0.0	 0.0	 1	 -30.0	 30.0;
	7595	 11390	 0.002169	 0.015909	 0.0	 1968.0	 1968.0	 1968.0	 0.0	 0.0	 1	 -30.0	 30.0;
	6873	 1806	 0.00027	 0.00254	 0.0	 12367.0	 12367.0	 12367.0	 0.0	 0.0	 1	 -30.0	 30.0;
	6873	 11151	 0.00027	 0.00259	 0.0	 12131.0	 12131.0	 12131.0	 0.0	 0.0	 1	 -30.0	 30.0;
	11949	 1806	 0.00033	 0.00302	 0.0	 10398.0	 10398.0	 10398.0	 0.0	 0.0	 1	 -30.0	 30.0;
	11949	 1269	 0.00029	 0.00312	 0.0	 10081.0	 10081.0	 10081.0	 0.0	 0.0	 1	 -30.0	 30.0;
	2623	 3359	 0.000289	 0.00137	 0.0	 22560.0	 22560.0	 22560.0	 0.0	 0.0	 1	 -30.0	 30.0;
	2623	 11159	 0.000219	 0.00263	 0.0	 11969.0	 11969.0	 11969.0	 0.0	 0.0	 1	 -30.0	 30.0;
	3020	 3359	 0.000289	 0.001341	 0.0	 23027.0	 23027.0	 23027.0	 0.0	 0.0	 1	 -30.0	 30.0;
	3020	 12995	 0.000229	 0.00257	 0.0	 12243.0	 12243.0	 12243.0	 0.0	 0.0	 1	 -30.0	 30.0;
	9670	 3359	 0.000841	 0.00689	 0.0	 4551.0	 4551.0	 4551.0	 0.0	 0.0	 1	 -30.0	 30.0;
	9670	 2360	 0.000979	 0.00586	 0.0	 5317.0	 5317.0	 5317.0	 0.0	 0.0	 1	 -30.0	 30.0;
	8390	 3359	 0.00014	 0.0012	 0.0	 26146.0	 26146.0	 26146.0	 0.0	 0.0	 1	 -30.0	 30.0;
	8390	 11515	 0.000211	 0.001539	 0.0	 20335.0	 20335.0	 20335.0	 0.0	 0.0	 1	 -30.0	 30.0;
	12630	 3359	 0.000401	 0.004901	 0.0	 6424.0	 6424.0	 6424.0	 0.0	 0.0	 1	 -30.0	 30.0;
	12630	 11515	 0.000219	 0.00151	 0.0	 20703.0	 20703.0	 20703.0	 0.0	 0.0	 1	 -30.0	 30.0;
	3340	 3359	 0.000729	 0.004539	 0.0	 6872.0	 6872.0	 6872.0	 0.0	 0.0	 1	 -30.0	 30.0;
	3340	 3953	 0.00062	 0.00482	 0.0	 6500.0	 6500.0	 6500.0	 0.0	 0.0	 1	 -30.0	 30.0;
	7444	 8848	 0.00052	 0.00407	 0.0	 7699.0	 7699.0	 7699.0	 0.0	 0.0	 1	 -30.0	 30.0;
	7444	 5026	 0.00034	 0.00502	 0.0	 6278.0	 6278.0	 6278.0	 0.0	 0.0	 1	 -30.0	 30.0;
	11055	 8848	 0.00065	 0.00698	 0.0	 4506.0	 4506.0	 4506.0	 0.0	 0.0	 1	 -30.0	 30.0;
	11055	 13067	 0.00059	 0.00806	 0.0	 3909.0	 3909.0	 3909.0	 0.0	 0.0	 1	 -30.0	 30.0;
	9857	 13125	 0.00063	 0.00464	 0.0	 6746.0	 6746.0	 6746.0	 0.0	 0.0	 1	 -30.0	 30.0;
	9857	 12598	 0.000599	 0.005099	 0.0	 6153.0	 6153.0	 6153.0	 0.0	 0.0	 1	 -30.0	 30.0;
	7256	 7011	 0.00064	 0.00307	 0.0	 10073.0	 10073.0	 10073.0	 0.0	 0.0	 1	 -30.0	 30.0;
	7256	 11232	 0.000659	 0.003	 0.0	 10284.0	 10284.0	 10284.0	 0.0	 0.0	 1	 -30.0	 30.0;
	12732	 9895	 0.00053	 0.00528	 0.0	 5953.0	 5953.0	 5953.0	 0.0	 0.0	 1	 -30.0	 30.0;
	12732	 4416	 0.00056	 0.0053	 0.0	 5927.0	 5927.0	 5927.0	 0.0	 0.0	 1	 -30.0	 30.0;
	4494	 7011	 0.0018	 0.007919	 0.0	 3890.0	 3890.0	 3890.0	 0.0	 0.0	 1	 -30.0	 30.0;
	4494	 10481	 0.001651	 0.00862	 0.0	 3600.0	 3600.0	 3600.0	 0.0	 0.0	 1	 -30.0	 30.0;
	7913	 9895	 0.00045	 0.00545	 0.0	 5777.0	 5777.0	 5777.0	 0.0	 0.0	 1	 -30.0	 30.0;
	7913	 1269	 0.00052	 0.00476	 0.0	 6597.0	 6597.0	 6597.0	 0.0	 0.0	 1	 -30.0	 30.0;
	3258	 10043	 0.01286	 0.037421	 0.0	 799.0	 799.0	 799.0	 0.0	 0.0	 1	 -30.0	 30.0;
	3258	 8238	 0.032397	 0.123	 0.0	 249.0	 249.0	 249.0	 0.0	 0.0	 1	 -30.0	 30.0;
	697	 10043	 0.032851	 0.069727	 0.0	 410.0	 410.0	 410.0	 0.0	 0.0	 1	 -30.0	 30.0;
	697	 11841	 0.059942	 0.112802	 0.0	 248.0	 248.0	 248.0	 0.0	 0.0	 1	 -30.0	 30.0;
	11629	 10942	 0.00011	 0.00109	 0.0	 28833.0	 28833.0	 28833.0	 0.0	 0.0	 1	 -30.0	 30.0;
	11629	 13171	 0.00011	 0.00107	 0.0	 29367.0	 29367.0	 29367.0	 0.0	 0.0	 1	 -30.0	 30.0;
	9089	 11260	 0.000461	 0.00395	 0.0	 7943.0	 7943.0	 7943.0	 0.0	 0.0	 1	 -30.0	 30.0;
	9089	 7609	 0.000599	 0.003789	 0.0	 8235.0	 8235.0	 8235.0	 0.0	 0.0	 1	 -30.0	 30.0;
	13119	 3581	 0.00173	 0.01542	 0.0	 2423.0	 2423.0	 2423.0	 0.0	 0.0	 1	 -30.0	 30.0;
	13119	 6381	 0.00166	 0.02083	 0.0	 1799.0	 1799.0	 1799.0	 0.0	 0.0	 1	 -30.0	 30.0;
	5075	 13106	 0.006314	 0.018488	 0.0	 1617.0	 1617.0	 1617.0	 0.0	 0.0	 1	 -30.0	 30.0;
	5075	 9503	 0.015727	 0.037669	 0.0	 774.0	 774.0	 774.0	 0.0	 0.0	 1	 -30.0	 30.0;
	11048	 10312	 0.00374	 0.02095	 0.0	 1485.0	 1485.0	 1485.0	 0.0	 0.0	 1	 -30.0	 30.0;
	11048	 3185	 0.00511	 0.019461	 0.0	 1570.0	 1570.0	 1570.0	 0.0	 0.0	 1	 -30.0	 30.0;
	1538	 4109	 0.011281	 0.050771	 0.0	 608.0	 608.0	 608.0	 0.0	 0.0	 1	 -30.0	 30.0;
	1538	 3721	 0.0115	 0.049719	 0.0	 619.0	 619.0	 619.0	 0.0	 0.0	 1	 -30.0	 30.0;
	5803	 4109	 0.011719	 0.048659	 0.0	 632.0	 632.0	 632.0	 0.0	 0.0	 1	 -30.0	 30.0;
	5803	 3721	 0.01193	 0.047599	 0.0	 644.0	 644.0	 644.0	 0.0	 0.0	 1	 -30.0	 30.0;
	189	 4268	 0.00064	 0.00715	 0.0	 4401.0	 4401.0	 4401.0	 0.0	 0.0	 1	 -30.0	 30.0;
	189	 11488	 0.00089	 0.00712	 0.0	 4403.0	 4403.0	 4403.0	 0.0	 0.0	 1	 -30.0	 30.0;
	7384	 1009	 0.00048	 0.00555	 0.0	 5671.0	 5671.0	 5671.0	 0.0	 0.0	 1	 -30.0	 30.0;
	7384	 11547	 0.00047	 0.00566	 0.0	 5562.0	 5562.0	 5562.0	 0.0	 0.0	 1	 -30.0	 30.0;
	11070	 1009	 0.00046	 0.00524	 0.0	 6006.0	 6006.0	 6006.0	 0.0	 0.0	 1	 -30.0	 30.0;
	11070	 11547	 0.00052	 0.00514	 0.0	 6115.0	 6115.0	 6115.0	 0.0	 0.0	 1	 -30.0	 30.0;
	2061	 6603	 0.00438	 0.010686	 0.0	 2736.0	 2736.0	 2736.0	 0.0	 0.0	 1	 -30.0	 30.0;
	2061	 9733	 0.031347	 0.062653	 0.0	 451.0	 451.0	 451.0	 0.0	 0.0	 1	 -30.0	 30.0;
	9502	 7241	 0.00029	 0.00298	 0.0	 10550.0	 10550.0	 10550.0	 0.0	 0.0	 1	 -30.0	 30.0;
	9502	 8865	 0.0003	 0.00291	 0.0	 10798.0	 10798.0	 10798.0	 0.0	 0.0	 1	 -30.0	 30.0;
	12336	 13321	 0.00155	 0.01529	 0.0	 2469.0	 2469.0	 2469.0	 0.0	 0.0	 1	 -30.0	 30.0;
	12336	 494	 0.00148	 0.0152	 0.0	 2462.0	 2462.0	 2462.0	 0.0	 0.0	 1	 -30.0	 30.0;
	13540	 11971	 0.000169	 0.00096	 0.0	 32406.0	 32406.0	 32406.0	 0.0	 0.0	 1	 -30.0	 30.0;
	13540	 330	 0.000182	 0.000942	 0.0	 32924.0	 32924.0	 32924.0	 0.0	 0.0	 1	 -30.0	 30.0;
	8250	 622	 0.00016	 0.00184	 0.0	 17103.0	 17103.0	 17103.0	 0.0	 0.0	 1	 -30.0	 30.0;
	8250	 8646	 0.00022	 0.00287	 0.0	 10974.0	 10974.0	 10974.0	 0.0	 0.0	 1	 -30.0	 30.0;
	5656	 9506	 0.00015	 0.00187	 0.0	 16838.0	 16838.0	 16838.0	 0.0	 0.0	 1	 -30.0	 30.0;
	5656	 7003	 0.00022	 0.00266	 0.0	 11835.0	 11835.0	 11835.0	 0.0	 0.0	 1	 -30.0	 30.0;
	8767	 13151	 0.00138	 0.0174	 0.0	 2154.0	 2154.0	 2154.0	 0.0	 0.0	 1	 -30.0	 30.0;
	8767	 256	 0.00272	 0.0288	 0.0	 1300.0	 1300.0	 1300.0	 0.0	 0.0	 1	 -30.0	 30.0;
	11952	 7565	 0.00065	 0.01024	 0.0	 3079.0	 3079.0	 3079.0	 0.0	 0.0	 1	 -30.0	 30.0;
	11952	 8750	 0.00073	 0.01004	 0.0	 3138.0	 3138.0	 3138.0	 0.0	 0.0	 1	 -30.0	 30.0;
	13220	 7565	 0.00075	 0.00983	 0.0	 3205.0	 3205.0	 3205.0	 0.0	 0.0	 1	 -30.0	 30.0;
	13220	 8750	 0.00076	 0.00963	 0.0	 3270.0	 3270.0	 3270.0	 0.0	 0.0	 1	 -30.0	 30.0;
	10465	 10831	 0.00042	 0.02666	 0.0	 1410.0	 1410.0	 1410.0	 0.0	 0.0	 1	 -30.0	 30.0;
	8079	 10358	 0.00029	 0.0026	 0.0	 12075.0	 12075.0	 12075.0	 0.0	 0.0	 1	 -30.0	 30.0;
	8079	 8404	 0.00022	 0.00303	 0.0	 10398.0	 10398.0	 10398.0	 0.0	 0.0	 1	 -30.0	 30.0;
	7197	 5524	 0.001	 0.006159	 0.0	 5063.0	 5063.0	 5063.0	 0.0	 0.0	 1	 -30.0	 30.0;
	7197	 11931	 0.00113	 0.00657	 0.0	 4739.0	 4739.0	 4739.0	 0.0	 0.0	 1	 -30.0	 30.0;
	1721	 12153	 0.0013	 0.01277	 0.0	 2929.0	 2929.0	 2929.0	 0.0	 0.0	 1	 -30.0	 30.0;
	1721	 10744	 0.00163	 0.01808	 0.0	 2071.0	 2071.0	 2071.0	 0.0	 0.0	 1	 -30.0	 30.0;
	8400	 850	 0.00047	 0.00406	 0.0	 9198.0	 9198.0	 9198.0	 0.0	 0.0	 1	 -30.0	 30.0;
	8400	 8575	 0.00235	 0.02343	 0.0	 1597.0	 1597.0	 1597.0	 0.0	 0.0	 1	 -30.0	 30.0;
	9020	 2201	 0.00036	 0.00445	 0.0	 7076.0	 7076.0	 7076.0	 0.0	 0.0	 1	 -30.0	 30.0;
	9020	 2350	 0.00017	 0.0025	 0.0	 12606.0	 12606.0	 12606.0	 0.0	 0.0	 1	 -30.0	 30.0;
	6435	 2201	 0.00036	 0.00436	 0.0	 7221.0	 7221.0	 7221.0	 0.0	 0.0	 1	 -30.0	 30.0;
	6435	 3448	 0.00017	 0.00255	 0.0	 12360.0	 12360.0	 12360.0	 0.0	 0.0	 1	 -30.0	 30.0;
	3223	 4642	 0.00096	 0.00995	 0.0	 3761.0	 3761.0	 3761.0	 0.0	 0.0	 1	 -30.0	 30.0;
	3223	 9919	 0.00152	 0.01949	 0.0	 1923.0	 1923.0	 1923.0	 0.0	 0.0	 1	 -30.0	 30.0;
	7755	 4642	 0.00094	 0.01014	 0.0	 3692.0	 3692.0	 3692.0	 0.0	 0.0	 1	 -30.0	 30.0;
	7755	 9919	 0.00149	 0.01986	 0.0	 1888.0	 1888.0	 1888.0	 0.0	 0.0	 1	 -30.0	 30.0;
	4129	 4642	 0.00107	 0.01243	 0.0	 3014.0	 3014.0	 3014.0	 0.0	 0.0	 1	 -30.0	 30.0;
	4129	 3715	 0.00102	 0.01034	 0.0	 3618.0	 3618.0	 3618.0	 0.0	 0.0	 1	 -30.0	 30.0;
	5471	 7106	 0.0047	 0.02061	 0.0	 1495.0	 1495.0	 1495.0	 0.0	 0.0	 1	 -30.0	 30.0;
	5471	 5434	 0.00739	 0.040531	 0.0	 767.0	 767.0	 767.0	 0.0	 0.0	 1	 -30.0	 30.0;
	8834	 12770	 0.00049	 0.00611	 0.0	 6133.0	 6133.0	 6133.0	 0.0	 0.0	 1	 -30.0	 30.0;
	8834	 10744	 0.00035	 0.00431	 0.0	 8694.0	 8694.0	 8694.0	 0.0	 0.0	 1	 -30.0	 30.0;
	7831	 1467	 0.00261	 0.01344	 0.0	 2308.0	 2308.0	 2308.0	 0.0	 0.0	 1	 -30.0	 30.0;
	7831	 5173	 0.003521	 0.019591	 0.0	 1587.0	 1587.0	 1587.0	 0.0	 0.0	 1	 -30.0	 30.0;
	10033	 5005	 0.0025	 0.01419	 0.0	 2193.0	 2193.0	 2193.0	 0.0	 0.0	 1	 -30.0	 30.0;
	10033	 7387	 0.00287	 0.0237	 0.0	 1324.0	 1324.0	 1324.0	 0.0	 0.0	 1	 -30.0	 30.0;
	9789	 9848	 0.00088	 0.00956	 0.0	 3952.0	 3952.0	 3952.0	 0.0	 0.0	 1	 -30.0	 30.0;
	9789	 430	 0.00095	 0.00877	 0.0	 3581.0	 3581.0	 3581.0	 0.0	 0.0	 1	 -30.0	 30.0;
	2916	 1094	 0.00332	 0.020651	 0.0	 1511.0	 1511.0	 1511.0	 0.0	 0.0	 1	 -30.0	 30.0;
	2916	 2869	 0.003969	 0.018781	 0.0	 1646.0	 1646.0	 1646.0	 0.0	 0.0	 1	 -30.0	 30.0;
	4142	 3925	 0.002849	 0.014909	 0.0	 2082.0	 2082.0	 2082.0	 0.0	 0.0	 1	 -30.0	 30.0;
	4142	 2245	 0.00439	 0.02451	 0.0	 1269.0	 1269.0	 1269.0	 0.0	 0.0	 1	 -30.0	 30.0;
	123	 12854	 0.0002	 0.0018	 0.0	 17442.0	 17442.0	 17442.0	 0.0	 0.0	 1	 -30.0	 30.0;
	123	 12369	 0.00025	 0.00261	 0.0	 12048.0	 12048.0	 12048.0	 0.0	 0.0	 1	 -30.0	 30.0;
	10806	 12854	 0.0002	 0.00176	 0.0	 17833.0	 17833.0	 17833.0	 0.0	 0.0	 1	 -30.0	 30.0;
	10806	 1112	 0.00025	 0.00255	 0.0	 12329.0	 12329.0	 12329.0	 0.0	 0.0	 1	 -30.0	 30.0;
	12593	 9027	 0.012488	 0.047413	 0.0	 645.0	 645.0	 645.0	 0.0	 0.0	 1	 -30.0	 30.0;
	12593	 455	 0.010479	 0.027711	 0.0	 1067.0	 1067.0	 1067.0	 0.0	 0.0	 1	 -30.0	 30.0;
	3745	 10922	 0.00044	 0.00428	 0.0	 7342.0	 7342.0	 7342.0	 0.0	 0.0	 1	 -30.0	 30.0;
	3745	 1898	 0.00036	 0.00475	 0.0	 6631.0	 6631.0	 6631.0	 0.0	 0.0	 1	 -30.0	 30.0;
	6938	 7640	 0.00058	 0.00534	 0.0	 5881.0	 5881.0	 5881.0	 0.0	 0.0	 1	 -30.0	 30.0;
	6938	 4543	 0.00054	 0.00589	 0.0	 5341.0	 5341.0	 5341.0	 0.0	 0.0	 1	 -30.0	 30.0;
	4229	 2024	 0.00206	 0.02057	 0.0	 1528.0	 1528.0	 1528.0	 0.0	 0.0	 1	 -30.0	 30.0;
	4229	 9388	 0.00077	 0.00872	 0.0	 3609.0	 3609.0	 3609.0	 0.0	 0.0	 1	 -30.0	 30.0;
	5543	 13575	 0.00161	 0.01963	 0.0	 1604.0	 1604.0	 1604.0	 0.0	 0.0	 1	 -30.0	 30.0;
	5543	 9388	 0.00075	 0.00888	 0.0	 3545.0	 3545.0	 3545.0	 0.0	 0.0	 1	 -30.0	 30.0;
	2764	 10638	 0.00016	 0.00152	 0.0	 20667.0	 20667.0	 20667.0	 0.0	 0.0	 1	 -30.0	 30.0;
	2764	 10338	 0.00019	 0.00163	 0.0	 19249.0	 19249.0	 19249.0	 0.0	 0.0	 1	 -30.0	 30.0;
	7963	 10638	 0.00015	 0.0016	 0.0	 19656.0	 19656.0	 19656.0	 0.0	 0.0	 1	 -30.0	 30.0;
	7963	 10338	 0.00015	 0.00183	 0.0	 17204.0	 17204.0	 17204.0	 0.0	 0.0	 1	 -30.0	 30.0;
	5383	 4802	 0.00121	 0.01426	 0.0	 2208.0	 2208.0	 2208.0	 0.0	 0.0	 1	 -30.0	 30.0;
	5383	 8035	 0.00116	 0.01456	 0.0	 2163.0	 2163.0	 2163.0	 0.0	 0.0	 1	 -30.0	 30.0;
	663	 204	 0.00068	 0.00727	 0.0	 4327.0	 4327.0	 4327.0	 0.0	 0.0	 1	 -30.0	 30.0;
	663	 6973	 0.0007	 0.00734	 0.0	 4285.0	 4285.0	 4285.0	 0.0	 0.0	 1	 -30.0	 30.0;
	11598	 204	 0.00076	 0.00712	 0.0	 4412.0	 4412.0	 4412.0	 0.0	 0.0	 1	 -30.0	 30.0;
	11598	 6973	 0.0008	 0.00719	 0.0	 4367.0	 4367.0	 4367.0	 0.0	 0.0	 1	 -30.0	 30.0;
	2983	 2257	 0.0002	 0.0022	 0.0	 14299.0	 14299.0	 14299.0	 0.0	 0.0	 1	 -30.0	 30.0;
	2983	 10869	 0.0002	 0.0022	 0.0	 14299.0	 14299.0	 14299.0	 0.0	 0.0	 1	 -30.0	 30.0;
	411	 4997	 0.000205	 0.00215	 0.0	 14626.0	 14626.0	 14626.0	 0.0	 0.0	 1	 -30.0	 30.0;
	411	 10869	 0.000205	 0.00215	 0.0	 14626.0	 14626.0	 14626.0	 0.0	 0.0	 1	 -30.0	 30.0;
	8649	 12423	 0.00053	 0.00589	 0.0	 5342.0	 5342.0	 5342.0	 0.0	 0.0	 1	 -30.0	 30.0;
	8649	 1165	 0.00046	 0.00675	 0.0	 4669.0	 4669.0	 4669.0	 0.0	 0.0	 1	 -30.0	 30.0;
	13485	 12423	 0.00054	 0.00577	 0.0	 5451.0	 5451.0	 5451.0	 0.0	 0.0	 1	 -30.0	 30.0;
	13485	 1165	 0.00045	 0.00625	 0.0	 5041.0	 5041.0	 5041.0	 0.0	 0.0	 1	 -30.0	 30.0;
	2363	 2209	 0.00275	 0.02752	 0.0	 1360.0	 1360.0	 1360.0	 0.0	 0.0	 1	 -30.0	 30.0;
	2363	 11249	 0.00184	 0.01515	 0.0	 2464.0	 2464.0	 2464.0	 0.0	 0.0	 1	 -30.0	 30.0;
	3314	 10019	 0.00438	 0.02432	 0.0	 1279.0	 1279.0	 1279.0	 0.0	 0.0	 1	 -30.0	 30.0;
	3314	 879	 0.0043	 0.01949	 0.0	 1583.0	 1583.0	 1583.0	 0.0	 0.0	 1	 -30.0	 30.0;
	12347	 10227	 0.00033	 0.00269	 0.0	 11656.0	 11656.0	 11656.0	 0.0	 0.0	 1	 -30.0	 30.0;
	12347	 2517	 0.00243	 0.01904	 0.0	 1977.0	 1977.0	 1977.0	 0.0	 0.0	 1	 -30.0	 30.0;
	1326	 10227	 0.00034	 0.00263	 0.0	 11912.0	 11912.0	 11912.0	 0.0	 0.0	 1	 -30.0	 30.0;
	1326	 2517	 0.00248	 0.01864	 0.0	 2018.0	 2018.0	 2018.0	 0.0	 0.0	 1	 -30.0	 30.0;
	9864	 13169	 0.00122	 0.01249	 0.0	 2518.0	 2518.0	 2518.0	 0.0	 0.0	 1	 -30.0	 30.0;
	9864	 5959	 0.00106	 0.01031	 0.0	 3048.0	 3048.0	 3048.0	 0.0	 0.0	 1	 -30.0	 30.0;
	4830	 13169	 0.00119	 0.01273	 0.0	 2471.0	 2471.0	 2471.0	 0.0	 0.0	 1	 -30.0	 30.0;
	4830	 5959	 0.00108	 0.01009	 0.0	 3113.0	 3113.0	 3113.0	 0.0	 0.0	 1	 -30.0	 30.0;
	12318	 6464	 0.001039	 0.013711	 0.0	 2298.0	 2298.0	 2298.0	 0.0	 0.0	 1	 -30.0	 30.0;
	12318	 7516	 0.00114	 0.011409	 0.0	 2755.0	 2755.0	 2755.0	 0.0	 0.0	 1	 -30.0	 30.0;
	11537	 8566	 0.001021	 0.013969	 0.0	 2256.0	 2256.0	 2256.0	 0.0	 0.0	 1	 -30.0	 30.0;
	11537	 7516	 0.001169	 0.011159	 0.0	 2816.0	 2816.0	 2816.0	 0.0	 0.0	 1	 -30.0	 30.0;
	13343	 12066	 0.0	 0.000271	 0.0	 116559.0	 116559.0	 116559.0	 0.0	 0.0	 1	 -30.0	 30.0;
	3313	 12066	 0.0	 0.000271	 0.0	 116559.0	 116559.0	 116559.0	 0.0	 0.0	 1	 -30.0	 30.0;
	1196	 218	 0.009372	 0.035702	 0.0	 856.0	 856.0	 856.0	 0.0	 0.0	 1	 -30.0	 30.0;
	1196	 3002	 0.029157	 0.103686	 0.0	 294.0	 294.0	 294.0	 0.0	 0.0	 1	 -30.0	 30.0;
	780	 8041	 0.00065	 0.00673	 0.0	 4672.0	 4672.0	 4672.0	 0.0	 0.0	 1	 -30.0	 30.0;
	780	 6114	 0.00066	 0.00658	 0.0	 4777.0	 4777.0	 4777.0	 0.0	 0.0	 1	 -30.0	 30.0;
...